
     RDKit          2D

 36 37  0  0  0  0  0  0  0  0999 V2000
   -2.4054    6.8197    0.0000 N   0  0  0  0  0  0  0  0  0  0  0  0
   -1.8687    5.4191    0.0000 C   0  0  0  0  0  0  0  0  0  0  0  0
   -0.3873    5.1835    0.0000 C   0  0  0  0  0  0  0  0  0  0  0  0
    0.1494    3.7828    0.0000 C   0  0  0  0  0  0  0  0  0  0  0  0
    1.6308    3.5473    0.0000 C   0  0  0  0  0  0  0  0  0  0  0  0
    2.1676    2.1466    0.0000 C   0  0  0  0  0  0  0  0  0  0  0  0
    3.6490    1.9111    0.0000 N   0  0  0  0  0  0  0  0  0  0  0  0
    4.1857    0.5104    0.0000 C   0  0  0  0  0  0  0  0  0  0  0  0
    3.2410   -0.6548    0.0000 O   0  0  0  0  0  0  0  0  0  0  0  0
    5.6671    0.2749    0.0000 O   0  0  0  0  0  0  0  0  0  0  0  0
    6.2038   -1.1258    0.0000 C   0  0  0  0  0  0  0  0  0  0  0  0
    7.6852   -1.3613    0.0000 C   0  0  0  0  0  0  0  0  0  0  0  0
    8.2219   -2.7620    0.0000 C   0  0  0  0  0  0  0  0  0  0  0  0
    9.7033   -2.9976    0.0000 C   0  0  0  0  0  0  0  0  0  0  0  0
   10.6480   -1.8324    0.0000 C   0  0  0  0  0  0  0  0  0  0  0  0
   10.1113   -0.4317    0.0000 C   0  0  0  0  0  0  0  0  0  0  0  0
    8.6299   -0.1962    0.0000 C   0  0  0  0  0  0  0  0  0  0  0  0
    1.2229    0.9815    0.0000 C   0  0  0  0  0  0  0  0  0  0  0  0
    1.7596   -0.4192    0.0000 O   0  0  0  0  0  0  0  0  0  0  0  0
   -0.2585    1.2170    0.0000 N   0  0  0  0  0  0  0  0  0  0  0  0
   -1.2032    0.0518    0.0000 C   0  0  0  0  0  0  0  0  0  0  0  0
   -2.6846    0.2874    0.0000 C   0  0  0  0  0  0  0  0  0  0  0  0
   -3.6292   -0.8778    0.0000 C   0  0  0  0  0  0  0  0  0  0  0  0
   -5.1106   -0.6423    0.0000 C   0  0  0  0  0  0  0  0  0  0  0  0
   -5.6474    0.7584    0.0000 O   0  0  0  0  0  0  0  0  0  0  0  0
   -6.0553   -1.8074    0.0000 N   0  0  0  0  0  0  0  0  0  0  0  0
   -5.6679   -3.2566    0.0000 C   0  0  0  0  0  0  0  0  0  0  0  0
   -6.9264   -4.0728    0.0000 C   0  0  0  0  0  0  0  0  0  0  0  0
   -8.0916   -3.1281    0.0000 C   0  0  0  0  0  0  0  0  0  0  0  0
   -7.5532   -1.7280    0.0000 C   0  0  0  0  0  0  0  0  0  0  0  0
   -8.3694   -0.4696    0.0000 C   0  0  0  0  0  0  0  0  0  0  0  0
   -7.6876    0.8665    0.0000 O   0  0  0  0  0  0  0  0  0  0  0  0
   -9.8674   -0.5472    0.0000 O   0  0  0  0  0  0  0  0  0  0  0  0
   -0.6665   -1.3489    0.0000 C   0  0  0  0  0  0  0  0  0  0  0  0
    0.8149   -1.5844    0.0000 O   0  0  0  0  0  0  0  0  0  0  0  0
   -1.6111   -2.5140    0.0000 O   0  0  0  0  0  0  0  0  0  0  0  0
  1  2  1  0
  2  3  1  0
  3  4  1  0
  4  5  1  0
  5  6  1  0
  6  7  1  0
  7  8  1  0
  8  9  2  0
  8 10  1  0
 10 11  1  0
 11 12  1  0
 12 13  2  0
 13 14  1  0
 14 15  2  0
 15 16  1  0
 16 17  2  0
  6 18  1  0
 18 19  2  0
 18 20  1  0
 20 21  1  0
 21 22  1  0
 22 23  1  0
 23 24  1  0
 24 25  2  0
 24 26  1  0
 26 27  1  0
 27 28  1  0
 28 29  1  0
 29 30  1  0
 30 31  1  0
 31 32  2  0
 31 33  1  0
 21 34  1  0
 34 35  2  0
 34 36  1  0
 17 12  1  0
 30 26  1  0
M  CHG  3   1   1  33  -1  36  -1
M  END
>  <pIC50_class>  (1) 
negative

$$$$

     RDKit          2D

 34 36  0  0  0  0  0  0  0  0999 V2000
    0.1206   -1.5201    0.0000 O   0  0  0  0  0  0  0  0  0  0  0  0
   -1.3218   -1.1085    0.0000 C   0  0  0  0  0  0  0  0  0  0  0  0
   -2.3995   -2.1518    0.0000 O   0  0  0  0  0  0  0  0  0  0  0  0
   -1.6865    0.3465    0.0000 C   0  0  0  0  0  0  0  0  0  0  0  0
   -3.1289    0.7582    0.0000 C   0  0  0  0  0  0  0  0  0  0  0  0
   -4.2066   -0.2851    0.0000 C   0  0  0  0  0  0  0  0  0  0  0  0
   -5.6490    0.1266    0.0000 C   0  0  0  0  0  0  0  0  0  0  0  0
   -6.0137    1.5816    0.0000 O   0  0  0  0  0  0  0  0  0  0  0  0
   -6.7267   -0.9167    0.0000 N   0  0  0  0  0  0  0  0  0  0  0  0
   -6.5161   -2.4019    0.0000 C   0  0  0  0  0  0  0  0  0  0  0  0
   -7.8635   -3.0611    0.0000 C   0  0  0  0  0  0  0  0  0  0  0  0
   -8.9068   -1.9833    0.0000 C   0  0  0  0  0  0  0  0  0  0  0  0
   -8.2042   -0.6581    0.0000 C   0  0  0  0  0  0  0  0  0  0  0  0
   -8.8635    0.6893    0.0000 C   0  0  0  0  0  0  0  0  0  0  0  0
   -8.0262    1.9339    0.0000 O   0  0  0  0  0  0  0  0  0  0  0  0
  -10.3599    0.7921    0.0000 O   0  0  0  0  0  0  0  0  0  0  0  0
   -0.6087    1.3898    0.0000 N   0  0  0  0  0  0  0  0  0  0  0  0
    0.8337    0.9782    0.0000 C   0  0  0  0  0  0  0  0  0  0  0  0
    1.1983   -0.4768    0.0000 O   0  0  0  0  0  0  0  0  0  0  0  0
    1.9114    2.0215    0.0000 C   0  0  0  0  0  0  0  0  0  0  0  0
    1.7008    3.5066    0.0000 C   0  0  0  0  0  0  0  0  0  0  0  0
    3.0482    4.1658    0.0000 C   0  0  0  0  0  0  0  0  0  0  0  0
    4.0915    3.0881    0.0000 C   0  0  0  0  0  0  0  0  0  0  0  0
    3.3889    1.7628    0.0000 N   0  0  0  0  0  0  0  0  0  0  0  0
    4.0481    0.4154    0.0000 C   0  0  0  0  0  0  0  0  0  0  0  0
    3.2109   -0.8291    0.0000 O   0  0  0  0  0  0  0  0  0  0  0  0
    5.5446    0.3126    0.0000 O   0  0  0  0  0  0  0  0  0  0  0  0
    6.2038   -1.0347    0.0000 C   0  0  0  0  0  0  0  0  0  0  0  0
    7.7003   -1.1375    0.0000 C   0  0  0  0  0  0  0  0  0  0  0  0
    8.3595   -2.4849    0.0000 C   0  0  0  0  0  0  0  0  0  0  0  0
    9.8560   -2.5877    0.0000 C   0  0  0  0  0  0  0  0  0  0  0  0
   10.6932   -1.3431    0.0000 C   0  0  0  0  0  0  0  0  0  0  0  0
   10.0340    0.0043    0.0000 C   0  0  0  0  0  0  0  0  0  0  0  0
    8.5376    0.1070    0.0000 C   0  0  0  0  0  0  0  0  0  0  0  0
  1  2  2  0
  2  3  1  0
  2  4  1  0
  4  5  1  0
  5  6  1  0
  6  7  1  0
  7  8  2  0
  7  9  1  0
  9 10  1  0
 10 11  1  0
 11 12  1  0
 12 13  1  0
 13 14  1  0
 14 15  2  0
 14 16  1  0
  4 17  1  0
 17 18  1  0
 18 19  2  0
 18 20  1  0
 20 21  1  0
 21 22  1  0
 22 23  1  0
 23 24  1  0
 24 25  1  0
 25 26  2  0
 25 27  1  0
 27 28  1  0
 28 29  1  0
 29 30  2  0
 30 31  1  0
 31 32  2  0
 32 33  1  0
 33 34  2  0
 13  9  1  0
 24 20  1  0
 34 29  1  0
M  CHG  2   3  -1  16  -1
M  END
>  <pIC50_class>  (2) 
negative

$$$$

     RDKit          2D

 32 33  0  0  0  0  0  0  0  0999 V2000
    1.6084    4.1661    0.0000 C   0  0  0  0  0  0  0  0  0  0  0  0
    2.1052    2.7508    0.0000 C   0  0  0  0  0  0  0  0  0  0  0  0
    3.5794    2.4735    0.0000 N   0  0  0  0  0  0  0  0  0  0  0  0
    4.0762    1.0582    0.0000 C   0  0  0  0  0  0  0  0  0  0  0  0
    3.0990   -0.0798    0.0000 O   0  0  0  0  0  0  0  0  0  0  0  0
    5.5504    0.7808    0.0000 O   0  0  0  0  0  0  0  0  0  0  0  0
    6.0473   -0.6345    0.0000 C   0  0  0  0  0  0  0  0  0  0  0  0
    7.5214   -0.9118    0.0000 C   0  0  0  0  0  0  0  0  0  0  0  0
    8.0183   -2.3272    0.0000 C   0  0  0  0  0  0  0  0  0  0  0  0
    9.4924   -2.6045    0.0000 C   0  0  0  0  0  0  0  0  0  0  0  0
   10.4697   -1.4665    0.0000 C   0  0  0  0  0  0  0  0  0  0  0  0
    9.9728   -0.0512    0.0000 C   0  0  0  0  0  0  0  0  0  0  0  0
    8.4987    0.2261    0.0000 C   0  0  0  0  0  0  0  0  0  0  0  0
    1.1280    1.6129    0.0000 C   0  0  0  0  0  0  0  0  0  0  0  0
    1.6249    0.1975    0.0000 O   0  0  0  0  0  0  0  0  0  0  0  0
   -0.3462    1.8902    0.0000 N   0  0  0  0  0  0  0  0  0  0  0  0
   -1.3234    0.7522    0.0000 C   0  0  0  0  0  0  0  0  0  0  0  0
   -2.7976    1.0296    0.0000 C   0  0  0  0  0  0  0  0  0  0  0  0
   -3.7748   -0.1084    0.0000 C   0  0  0  0  0  0  0  0  0  0  0  0
   -5.2489    0.1690    0.0000 C   0  0  0  0  0  0  0  0  0  0  0  0
   -5.7458    1.5843    0.0000 O   0  0  0  0  0  0  0  0  0  0  0  0
   -6.2262   -0.9690    0.0000 N   0  0  0  0  0  0  0  0  0  0  0  0
   -5.8800   -2.4285    0.0000 C   0  0  0  0  0  0  0  0  0  0  0  0
   -7.1611   -3.2088    0.0000 C   0  0  0  0  0  0  0  0  0  0  0  0
   -8.2990   -2.2315    0.0000 C   0  0  0  0  0  0  0  0  0  0  0  0
   -7.7213   -0.8473    0.0000 C   0  0  0  0  0  0  0  0  0  0  0  0
   -8.5015    0.4338    0.0000 C   0  0  0  0  0  0  0  0  0  0  0  0
   -7.7822    1.7501    0.0000 O   0  0  0  0  0  0  0  0  0  0  0  0
  -10.0011    0.3986    0.0000 O   0  0  0  0  0  0  0  0  0  0  0  0
   -0.8265   -0.6631    0.0000 C   0  0  0  0  0  0  0  0  0  0  0  0
    0.6476   -0.9404    0.0000 O   0  0  0  0  0  0  0  0  0  0  0  0
   -1.8038   -1.8010    0.0000 O   0  0  0  0  0  0  0  0  0  0  0  0
  1  2  1  0
  2  3  1  0
  3  4  1  0
  4  5  2  0
  4  6  1  0
  6  7  1  0
  7  8  1  0
  8  9  2  0
  9 10  1  0
 10 11  2  0
 11 12  1  0
 12 13  2  0
  2 14  1  0
 14 15  2  0
 14 16  1  0
 16 17  1  0
 17 18  1  0
 18 19  1  0
 19 20  1  0
 20 21  2  0
 20 22  1  0
 22 23  1  0
 23 24  1  0
 24 25  1  0
 25 26  1  0
 26 27  1  0
 27 28  2  0
 27 29  1  0
 17 30  1  0
 30 31  2  0
 30 32  1  0
 13  8  1  0
 26 22  1  0
M  CHG  2  29  -1  32  -1
M  END
>  <pIC50_class>  (3) 
negative

$$$$

     RDKit          2D

 40 42  0  0  0  0  0  0  0  0999 V2000
   -9.0028   -2.1280    0.0000 N   0  0  0  0  0  0  0  0  0  0  0  0
   -7.6024   -1.5906    0.0000 C   0  0  0  0  0  0  0  0  0  0  0  0
   -6.4368   -2.5348    0.0000 C   0  0  0  0  0  0  0  0  0  0  0  0
   -5.0363   -1.9975    0.0000 C   0  0  0  0  0  0  0  0  0  0  0  0
   -3.8708   -2.9416    0.0000 C   0  0  0  0  0  0  0  0  0  0  0  0
   -2.4703   -2.4043    0.0000 C   0  0  0  0  0  0  0  0  0  0  0  0
   -2.2354   -0.9228    0.0000 N   0  0  0  0  0  0  0  0  0  0  0  0
   -3.4010    0.0214    0.0000 C   0  0  0  0  0  0  0  0  0  0  0  0
   -4.8014   -0.5160    0.0000 O   0  0  0  0  0  0  0  0  0  0  0  0
   -3.1661    1.5028    0.0000 O   0  0  0  0  0  0  0  0  0  0  0  0
   -4.3317    2.4470    0.0000 C   0  0  0  0  0  0  0  0  0  0  0  0
   -4.0968    3.9285    0.0000 C   0  0  0  0  0  0  0  0  0  0  0  0
   -2.6963    4.4658    0.0000 C   0  0  0  0  0  0  0  0  0  0  0  0
   -2.4614    5.9473    0.0000 C   0  0  0  0  0  0  0  0  0  0  0  0
   -3.6270    6.8915    0.0000 C   0  0  0  0  0  0  0  0  0  0  0  0
   -5.0275    6.3542    0.0000 C   0  0  0  0  0  0  0  0  0  0  0  0
   -5.2623    4.8727    0.0000 C   0  0  0  0  0  0  0  0  0  0  0  0
   -1.3047   -3.3485    0.0000 C   0  0  0  0  0  0  0  0  0  0  0  0
   -1.5396   -4.8300    0.0000 O   0  0  0  0  0  0  0  0  0  0  0  0
    0.0957   -2.8112    0.0000 N   0  0  0  0  0  0  0  0  0  0  0  0
    1.2613   -3.7553    0.0000 C   0  0  0  0  0  0  0  0  0  0  0  0
    2.6617   -3.2180    0.0000 C   0  0  0  0  0  0  0  0  0  0  0  0
    2.8966   -1.7365    0.0000 C   0  0  0  0  0  0  0  0  0  0  0  0
    4.2971   -1.1992    0.0000 C   0  0  0  0  0  0  0  0  0  0  0  0
    5.4627   -2.1433    0.0000 O   0  0  0  0  0  0  0  0  0  0  0  0
    4.5320    0.2823    0.0000 N   0  0  0  0  0  0  0  0  0  0  0  0
    5.8686    0.9631    0.0000 C   0  0  0  0  0  0  0  0  0  0  0  0
    7.2689    0.4253    0.0000 C   0  0  0  0  0  0  0  0  0  0  0  0
    8.4348    1.3691    0.0000 C   0  0  0  0  0  0  0  0  0  0  0  0
    8.2003    2.8507    0.0000 C   0  0  0  0  0  0  0  0  0  0  0  0
    6.8001    3.3885    0.0000 C   0  0  0  0  0  0  0  0  0  0  0  0
    5.6342    2.4447    0.0000 C   0  0  0  0  0  0  0  0  0  0  0  0
    4.1527    2.6796    0.0000 C   0  0  0  0  0  0  0  0  0  0  0  0
    3.4715    1.3432    0.0000 C   0  0  0  0  0  0  0  0  0  0  0  0
    1.9899    1.1087    0.0000 C   0  0  0  0  0  0  0  0  0  0  0  0
    1.4521   -0.2915    0.0000 O   0  0  0  0  0  0  0  0  0  0  0  0
    1.0461    2.2746    0.0000 O   0  0  0  0  0  0  0  0  0  0  0  0
    1.0264   -5.2368    0.0000 C   0  0  0  0  0  0  0  0  0  0  0  0
    2.1920   -6.1810    0.0000 O   0  0  0  0  0  0  0  0  0  0  0  0
   -0.3741   -5.7741    0.0000 O   0  0  0  0  0  0  0  0  0  0  0  0
  1  2  1  0
  2  3  1  0
  3  4  1  0
  4  5  1  0
  5  6  1  0
  6  7  1  0
  7  8  1  0
  8  9  2  0
  8 10  1  0
 10 11  1  0
 11 12  1  0
 12 13  2  0
 13 14  1  0
 14 15  2  0
 15 16  1  0
 16 17  2  0
  6 18  1  0
 18 19  2  0
 18 20  1  0
 20 21  1  0
 21 22  1  0
 22 23  1  0
 23 24  1  0
 24 25  2  0
 24 26  1  0
 26 27  1  0
 27 28  2  0
 28 29  1  0
 29 30  2  0
 30 31  1  0
 31 32  2  0
 32 33  1  0
 33 34  1  0
 34 35  1  0
 35 36  2  0
 35 37  1  0
 21 38  1  0
 38 39  2  0
 38 40  1  0
 17 12  1  0
 34 26  1  0
 32 27  1  0
M  CHG  3   1   1  37  -1  40  -1
M  END
>  <pIC50_class>  (4) 
negative

$$$$

     RDKit          2D

 42 45  0  0  0  0  0  0  0  0999 V2000
   -4.1606    2.4957    0.0000 O   0  0  0  0  0  0  0  0  0  0  0  0
   -2.6767    2.2761    0.0000 C   0  0  0  0  0  0  0  0  0  0  0  0
   -2.1250    0.8813    0.0000 N   0  0  0  0  0  0  0  0  0  0  0  0
   -3.0571   -0.2940    0.0000 C   0  0  0  0  0  0  0  0  0  0  0  0
   -4.5409   -0.0744    0.0000 C   0  0  0  0  0  0  0  0  0  0  0  0
   -5.4730   -1.2496    0.0000 C   0  0  0  0  0  0  0  0  0  0  0  0
   -4.9212   -2.6445    0.0000 C   0  0  0  0  0  0  0  0  0  0  0  0
   -5.8533   -3.8197    0.0000 C   0  0  0  0  0  0  0  0  0  0  0  0
   -7.3372   -3.6001    0.0000 C   0  0  0  0  0  0  0  0  0  0  0  0
   -7.8889   -2.2053    0.0000 C   0  0  0  0  0  0  0  0  0  0  0  0
   -6.9568   -1.0301    0.0000 C   0  0  0  0  0  0  0  0  0  0  0  0
   -2.5053   -1.6888    0.0000 C   0  0  0  0  0  0  0  0  0  0  0  0
   -3.4374   -2.8641    0.0000 O   0  0  0  0  0  0  0  0  0  0  0  0
   -1.0215   -1.9084    0.0000 N   0  0  0  0  0  0  0  0  0  0  0  0
   -0.4697   -3.3033    0.0000 C   0  0  0  0  0  0  0  0  0  0  0  0
    1.0141   -3.5229    0.0000 C   0  0  0  0  0  0  0  0  0  0  0  0
    1.9462   -2.3476    0.0000 C   0  0  0  0  0  0  0  0  0  0  0  0
    3.4300   -2.5672    0.0000 C   0  0  0  0  0  0  0  0  0  0  0  0
    3.9818   -3.9620    0.0000 O   0  0  0  0  0  0  0  0  0  0  0  0
    4.3621   -1.3920    0.0000 N   0  0  0  0  0  0  0  0  0  0  0  0
    5.8608   -1.4552    0.0000 C   0  0  0  0  0  0  0  0  0  0  0  0
    6.8166   -2.6113    0.0000 C   0  0  0  0  0  0  0  0  0  0  0  0
    8.2956   -2.3616    0.0000 C   0  0  0  0  0  0  0  0  0  0  0  0
    8.8189   -0.9559    0.0000 C   0  0  0  0  0  0  0  0  0  0  0  0
    7.8632    0.2002    0.0000 C   0  0  0  0  0  0  0  0  0  0  0  0
    6.3841   -0.0495    0.0000 C   0  0  0  0  0  0  0  0  0  0  0  0
    5.2089    0.8826    0.0000 C   0  0  0  0  0  0  0  0  0  0  0  0
    3.9592    0.0529    0.0000 C   0  0  0  0  0  0  0  0  0  0  0  0
    2.5535    0.5762    0.0000 C   0  0  0  0  0  0  0  0  0  0  0  0
    1.3974   -0.3796    0.0000 O   0  0  0  0  0  0  0  0  0  0  0  0
    2.3038    2.0553    0.0000 O   0  0  0  0  0  0  0  0  0  0  0  0
   -1.4018   -4.4785    0.0000 C   0  0  0  0  0  0  0  0  0  0  0  0
   -0.8501   -5.8733    0.0000 O   0  0  0  0  0  0  0  0  0  0  0  0
   -2.8857   -4.2589    0.0000 O   0  0  0  0  0  0  0  0  0  0  0  0
   -1.7446    3.4513    0.0000 O   0  0  0  0  0  0  0  0  0  0  0  0
   -2.2964    4.8462    0.0000 C   0  0  0  0  0  0  0  0  0  0  0  0
   -1.3643    6.0214    0.0000 C   0  0  0  0  0  0  0  0  0  0  0  0
    0.1196    5.8018    0.0000 C   0  0  0  0  0  0  0  0  0  0  0  0
    1.0517    6.9771    0.0000 C   0  0  0  0  0  0  0  0  0  0  0  0
    0.4999    8.3719    0.0000 C   0  0  0  0  0  0  0  0  0  0  0  0
   -0.9839    8.5915    0.0000 C   0  0  0  0  0  0  0  0  0  0  0  0
   -1.9160    7.4163    0.0000 C   0  0  0  0  0  0  0  0  0  0  0  0
  1  2  2  0
  2  3  1  0
  3  4  1  0
  4  5  1  0
  5  6  1  0
  6  7  2  0
  7  8  1  0
  8  9  2  0
  9 10  1  0
 10 11  2  0
  4 12  1  0
 12 13  2  0
 12 14  1  0
 14 15  1  0
 15 16  1  0
 16 17  1  0
 17 18  1  0
 18 19  2  0
 18 20  1  0
 20 21  1  0
 21 22  2  0
 22 23  1  0
 23 24  2  0
 24 25  1  0
 25 26  2  0
 26 27  1  0
 27 28  1  0
 28 29  1  0
 29 30  2  0
 29 31  1  0
 15 32  1  0
 32 33  2  0
 32 34  1  0
  2 35  1  0
 35 36  1  0
 36 37  1  0
 37 38  2  0
 38 39  1  0
 39 40  2  0
 40 41  1  0
 41 42  2  0
 11  6  1  0
 28 20  1  0
 42 37  1  0
 26 21  1  0
M  CHG  2  31  -1  34  -1
M  END
>  <pIC50_class>  (5) 
positive

$$$$

     RDKit          2D

 40 42  0  0  0  0  0  0  0  0999 V2000
    8.6069    3.1313    0.0000 N   0  0  0  0  0  0  0  0  0  0  0  0
    7.2757    2.4399    0.0000 C   0  0  0  0  0  0  0  0  0  0  0  0
    6.0114    3.2470    0.0000 C   0  0  0  0  0  0  0  0  0  0  0  0
    4.6802    2.5556    0.0000 C   0  0  0  0  0  0  0  0  0  0  0  0
    3.4159    3.3627    0.0000 C   0  0  0  0  0  0  0  0  0  0  0  0
    2.0847    2.6713    0.0000 C   0  0  0  0  0  0  0  0  0  0  0  0
    2.0179    1.1728    0.0000 N   0  0  0  0  0  0  0  0  0  0  0  0
    3.2823    0.3657    0.0000 C   0  0  0  0  0  0  0  0  0  0  0  0
    4.6134    1.0571    0.0000 O   0  0  0  0  0  0  0  0  0  0  0  0
    3.2155   -1.1329    0.0000 O   0  0  0  0  0  0  0  0  0  0  0  0
    4.4798   -1.9400    0.0000 C   0  0  0  0  0  0  0  0  0  0  0  0
    4.4130   -3.4385    0.0000 C   0  0  0  0  0  0  0  0  0  0  0  0
    3.0818   -4.1299    0.0000 C   0  0  0  0  0  0  0  0  0  0  0  0
    3.0150   -5.6284    0.0000 C   0  0  0  0  0  0  0  0  0  0  0  0
    4.2794   -6.4355    0.0000 C   0  0  0  0  0  0  0  0  0  0  0  0
    5.6105   -5.7441    0.0000 C   0  0  0  0  0  0  0  0  0  0  0  0
    5.6773   -4.2456    0.0000 C   0  0  0  0  0  0  0  0  0  0  0  0
    0.8204    3.4784    0.0000 C   0  0  0  0  0  0  0  0  0  0  0  0
    0.8872    4.9769    0.0000 O   0  0  0  0  0  0  0  0  0  0  0  0
   -0.5108    2.7870    0.0000 N   0  0  0  0  0  0  0  0  0  0  0  0
   -1.7751    3.5941    0.0000 C   0  0  0  0  0  0  0  0  0  0  0  0
   -3.1063    2.9027    0.0000 C   0  0  0  0  0  0  0  0  0  0  0  0
   -3.1731    1.4042    0.0000 C   0  0  0  0  0  0  0  0  0  0  0  0
   -4.5042    0.7128    0.0000 C   0  0  0  0  0  0  0  0  0  0  0  0
   -5.7686    1.5199    0.0000 O   0  0  0  0  0  0  0  0  0  0  0  0
   -4.5710   -0.7857    0.0000 N   0  0  0  0  0  0  0  0  0  0  0  0
   -5.8226   -1.6125    0.0000 C   0  0  0  0  0  0  0  0  0  0  0  0
   -7.2271   -1.0859    0.0000 C   0  0  0  0  0  0  0  0  0  0  0  0
   -8.3855   -2.0389    0.0000 O   0  0  0  0  0  0  0  0  0  0  0  0
   -7.4734    0.3938    0.0000 O   0  0  0  0  0  0  0  0  0  0  0  0
   -5.4231   -3.0583    0.0000 C   0  0  0  0  0  0  0  0  0  0  0  0
   -3.9246   -3.1251    0.0000 C   0  0  0  0  0  0  0  0  0  0  0  0
   -2.9715   -4.2834    0.0000 C   0  0  0  0  0  0  0  0  0  0  0  0
   -1.4919   -4.0372    0.0000 C   0  0  0  0  0  0  0  0  0  0  0  0
   -0.9653   -2.6327    0.0000 C   0  0  0  0  0  0  0  0  0  0  0  0
   -1.9183   -1.4744    0.0000 C   0  0  0  0  0  0  0  0  0  0  0  0
   -3.3980   -1.7206    0.0000 C   0  0  0  0  0  0  0  0  0  0  0  0
   -1.7083    5.0926    0.0000 C   0  0  0  0  0  0  0  0  0  0  0  0
   -2.9727    5.8997    0.0000 O   0  0  0  0  0  0  0  0  0  0  0  0
   -0.3772    5.7840    0.0000 O   0  0  0  0  0  0  0  0  0  0  0  0
  1  2  1  0
  2  3  1  0
  3  4  1  0
  4  5  1  0
  5  6  1  0
  6  7  1  0
  7  8  1  0
  8  9  2  0
  8 10  1  0
 10 11  1  0
 11 12  1  0
 12 13  2  0
 13 14  1  0
 14 15  2  0
 15 16  1  0
 16 17  2  0
  6 18  1  0
 18 19  2  0
 18 20  1  0
 20 21  1  0
 21 22  1  0
 22 23  1  0
 23 24  1  0
 24 25  2  0
 24 26  1  0
 26 27  1  0
 27 28  1  0
 28 29  2  0
 28 30  1  0
 27 31  1  0
 31 32  1  0
 32 33  1  0
 33 34  1  0
 34 35  1  0
 35 36  1  0
 36 37  1  0
 21 38  1  0
 38 39  2  0
 38 40  1  0
 17 12  1  0
 37 26  1  0
 37 32  1  0
M  CHG  3   1   1  30  -1  40  -1
M  END
>  <pIC50_class>  (6) 
positive

$$$$

     RDKit          2D

 38 41  0  0  0  0  0  0  0  0999 V2000
    4.8286    4.1640    0.0000 O   0  0  0  0  0  0  0  0  0  0  0  0
    4.6778    2.6716    0.0000 C   0  0  0  0  0  0  0  0  0  0  0  0
    5.8948    1.7948    0.0000 O   0  0  0  0  0  0  0  0  0  0  0  0
    3.3099    2.0560    0.0000 C   0  0  0  0  0  0  0  0  0  0  0  0
    2.0929    2.9328    0.0000 C   0  0  0  0  0  0  0  0  0  0  0  0
    0.7250    2.3172    0.0000 C   0  0  0  0  0  0  0  0  0  0  0  0
   -0.4920    3.1941    0.0000 C   0  0  0  0  0  0  0  0  0  0  0  0
   -0.3412    4.6864    0.0000 O   0  0  0  0  0  0  0  0  0  0  0  0
   -1.8599    2.5785    0.0000 N   0  0  0  0  0  0  0  0  0  0  0  0
   -3.1619    3.3233    0.0000 C   0  0  0  0  0  0  0  0  0  0  0  0
   -3.3247    4.8144    0.0000 C   0  0  0  0  0  0  0  0  0  0  0  0
   -4.6974    5.4190    0.0000 O   0  0  0  0  0  0  0  0  0  0  0  0
   -2.1147    5.7009    0.0000 O   0  0  0  0  0  0  0  0  0  0  0  0
   -4.2726    2.3151    0.0000 C   0  0  0  0  0  0  0  0  0  0  0  0
   -3.6570    0.9473    0.0000 C   0  0  0  0  0  0  0  0  0  0  0  0
   -4.2616   -0.4255    0.0000 C   0  0  0  0  0  0  0  0  0  0  0  0
   -3.3751   -1.6355    0.0000 C   0  0  0  0  0  0  0  0  0  0  0  0
   -1.8840   -1.4727    0.0000 C   0  0  0  0  0  0  0  0  0  0  0  0
   -1.2794   -0.1000    0.0000 C   0  0  0  0  0  0  0  0  0  0  0  0
   -2.1659    1.1100    0.0000 C   0  0  0  0  0  0  0  0  0  0  0  0
    3.1591    0.5636    0.0000 N   0  0  0  0  0  0  0  0  0  0  0  0
    4.3762   -0.3132    0.0000 C   0  0  0  0  0  0  0  0  0  0  0  0
    5.7440    0.3024    0.0000 O   0  0  0  0  0  0  0  0  0  0  0  0
    4.2253   -1.8056    0.0000 C   0  0  0  0  0  0  0  0  0  0  0  0
    5.3441   -2.8048    0.0000 C   0  0  0  0  0  0  0  0  0  0  0  0
    4.7394   -4.1776    0.0000 C   0  0  0  0  0  0  0  0  0  0  0  0
    3.2470   -4.0268    0.0000 C   0  0  0  0  0  0  0  0  0  0  0  0
    2.9293   -2.5608    0.0000 N   0  0  0  0  0  0  0  0  0  0  0  0
    1.5566   -1.9562    0.0000 C   0  0  0  0  0  0  0  0  0  0  0  0
    1.3938   -0.4650    0.0000 O   0  0  0  0  0  0  0  0  0  0  0  0
    0.3466   -2.8427    0.0000 O   0  0  0  0  0  0  0  0  0  0  0  0
   -1.0262   -2.2381    0.0000 C   0  0  0  0  0  0  0  0  0  0  0  0
   -2.2362   -3.1246    0.0000 C   0  0  0  0  0  0  0  0  0  0  0  0
   -3.6089   -2.5200    0.0000 C   0  0  0  0  0  0  0  0  0  0  0  0
   -4.8189   -3.4065    0.0000 C   0  0  0  0  0  0  0  0  0  0  0  0
   -4.6561   -4.8977    0.0000 C   0  0  0  0  0  0  0  0  0  0  0  0
   -3.2834   -5.5023    0.0000 C   0  0  0  0  0  0  0  0  0  0  0  0
   -2.0734   -4.6158    0.0000 C   0  0  0  0  0  0  0  0  0  0  0  0
  1  2  2  0
  2  3  1  0
  2  4  1  0
  4  5  1  0
  5  6  1  0
  6  7  1  0
  7  8  2  0
  7  9  1  0
  9 10  1  0
 10 11  1  0
 11 12  2  0
 11 13  1  0
 10 14  1  0
 14 15  1  0
 15 16  1  0
 16 17  1  0
 17 18  1  0
 18 19  1  0
 19 20  1  0
  4 21  1  0
 21 22  1  0
 22 23  2  0
 22 24  1  0
 24 25  1  0
 25 26  1  0
 26 27  1  0
 27 28  1  0
 28 29  1  0
 29 30  2  0
 29 31  1  0
 31 32  1  0
 32 33  1  0
 33 34  2  0
 34 35  1  0
 35 36  2  0
 36 37  1  0
 37 38  2  0
 20  9  1  0
 28 24  1  0
 38 33  1  0
 20 15  1  0
M  CHG  2   3  -1  13  -1
M  END
>  <pIC50_class>  (7) 
negative

$$$$

     RDKit          2D

 30 31  0  0  0  0  0  0  0  0999 V2000
    9.9088   -2.4687    0.0000 N   0  0  0  0  0  0  0  0  0  0  0  0
    8.4095   -2.5120    0.0000 C   0  0  0  0  0  0  0  0  0  0  0  0
    7.6223   -1.2352    0.0000 C   0  0  0  0  0  0  0  0  0  0  0  0
    6.1229   -1.2785    0.0000 C   0  0  0  0  0  0  0  0  0  0  0  0
    5.3357   -0.0016    0.0000 C   0  0  0  0  0  0  0  0  0  0  0  0
    3.8364   -0.0449    0.0000 C   0  0  0  0  0  0  0  0  0  0  0  0
    3.1242   -1.3650    0.0000 N   0  0  0  0  0  0  0  0  0  0  0  0
    3.0492    1.2320    0.0000 C   0  0  0  0  0  0  0  0  0  0  0  0
    3.7614    2.5521    0.0000 O   0  0  0  0  0  0  0  0  0  0  0  0
    1.5498    1.1887    0.0000 N   0  0  0  0  0  0  0  0  0  0  0  0
    0.7626    2.4655    0.0000 C   0  0  0  0  0  0  0  0  0  0  0  0
   -0.7368    2.4222    0.0000 C   0  0  0  0  0  0  0  0  0  0  0  0
   -1.4490    1.1021    0.0000 C   0  0  0  0  0  0  0  0  0  0  0  0
   -2.9483    1.0588    0.0000 C   0  0  0  0  0  0  0  0  0  0  0  0
   -3.7355    2.3356    0.0000 O   0  0  0  0  0  0  0  0  0  0  0  0
   -3.6605   -0.2614    0.0000 N   0  0  0  0  0  0  0  0  0  0  0  0
   -5.1472   -0.4611    0.0000 C   0  0  0  0  0  0  0  0  0  0  0  0
   -6.1826    0.6241    0.0000 C   0  0  0  0  0  0  0  0  0  0  0  0
   -7.6402    0.2701    0.0000 O   0  0  0  0  0  0  0  0  0  0  0  0
   -5.7605    2.0635    0.0000 O   0  0  0  0  0  0  0  0  0  0  0  0
   -5.4166   -1.9368    0.0000 C   0  0  0  0  0  0  0  0  0  0  0  0
   -4.0964   -2.6489    0.0000 C   0  0  0  0  0  0  0  0  0  0  0  0
   -3.7423   -4.1066    0.0000 C   0  0  0  0  0  0  0  0  0  0  0  0
   -2.3030   -4.5287    0.0000 C   0  0  0  0  0  0  0  0  0  0  0  0
   -1.2177   -3.4933    0.0000 C   0  0  0  0  0  0  0  0  0  0  0  0
   -1.5718   -2.0357    0.0000 C   0  0  0  0  0  0  0  0  0  0  0  0
   -3.0111   -1.6135    0.0000 C   0  0  0  0  0  0  0  0  0  0  0  0
    1.4748    3.7857    0.0000 C   0  0  0  0  0  0  0  0  0  0  0  0
    0.6876    5.0625    0.0000 O   0  0  0  0  0  0  0  0  0  0  0  0
    2.9742    3.8289    0.0000 O   0  0  0  0  0  0  0  0  0  0  0  0
  1  2  1  0
  2  3  1  0
  3  4  1  0
  4  5  1  0
  5  6  1  0
  6  7  1  0
  6  8  1  0
  8  9  2  0
  8 10  1  0
 10 11  1  0
 11 12  1  0
 12 13  1  0
 13 14  1  0
 14 15  2  0
 14 16  1  0
 16 17  1  0
 17 18  1  0
 18 19  2  0
 18 20  1  0
 17 21  1  0
 21 22  1  0
 22 23  1  0
 23 24  1  0
 24 25  1  0
 25 26  1  0
 26 27  1  0
 11 28  1  0
 28 29  2  0
 28 30  1  0
 27 16  1  0
 27 22  1  0
M  CHG  4   1   1   7   1  20  -1  30  -1
M  END
>  <pIC50_class>  (8) 
negative

$$$$

     RDKit          2D

 32 34  0  0  0  0  0  0  0  0999 V2000
    2.9190   -0.8637    0.0000 N   0  0  0  0  0  0  0  0  0  0  0  0
    3.5108    0.5146    0.0000 C   0  0  0  0  0  0  0  0  0  0  0  0
    5.0004    0.6912    0.0000 C   0  0  0  0  0  0  0  0  0  0  0  0
    5.8981   -0.5105    0.0000 C   0  0  0  0  0  0  0  0  0  0  0  0
    5.3063   -1.8888    0.0000 C   0  0  0  0  0  0  0  0  0  0  0  0
    6.2040   -3.0905    0.0000 C   0  0  0  0  0  0  0  0  0  0  0  0
    7.6936   -2.9139    0.0000 C   0  0  0  0  0  0  0  0  0  0  0  0
    8.2854   -1.5356    0.0000 C   0  0  0  0  0  0  0  0  0  0  0  0
    7.3877   -0.3339    0.0000 C   0  0  0  0  0  0  0  0  0  0  0  0
    2.6131    1.7163    0.0000 C   0  0  0  0  0  0  0  0  0  0  0  0
    3.2049    3.0946    0.0000 O   0  0  0  0  0  0  0  0  0  0  0  0
    1.1235    1.5397    0.0000 N   0  0  0  0  0  0  0  0  0  0  0  0
    0.2258    2.7414    0.0000 C   0  0  0  0  0  0  0  0  0  0  0  0
   -1.2638    2.5648    0.0000 C   0  0  0  0  0  0  0  0  0  0  0  0
   -1.8556    1.1865    0.0000 C   0  0  0  0  0  0  0  0  0  0  0  0
   -3.3452    1.0099    0.0000 C   0  0  0  0  0  0  0  0  0  0  0  0
   -4.2429    2.2116    0.0000 O   0  0  0  0  0  0  0  0  0  0  0  0
   -3.9370   -0.3684    0.0000 N   0  0  0  0  0  0  0  0  0  0  0  0
   -5.4000   -0.6997    0.0000 C   0  0  0  0  0  0  0  0  0  0  0  0
   -6.5279    0.2891    0.0000 C   0  0  0  0  0  0  0  0  0  0  0  0
   -7.9482   -0.1933    0.0000 O   0  0  0  0  0  0  0  0  0  0  0  0
   -6.2356    1.7603    0.0000 O   0  0  0  0  0  0  0  0  0  0  0  0
   -5.5369   -2.1934    0.0000 C   0  0  0  0  0  0  0  0  0  0  0  0
   -4.1586   -2.7853    0.0000 C   0  0  0  0  0  0  0  0  0  0  0  0
   -3.6762   -4.2056    0.0000 C   0  0  0  0  0  0  0  0  0  0  0  0
   -2.2050   -4.4979    0.0000 C   0  0  0  0  0  0  0  0  0  0  0  0
   -1.2162   -3.3700    0.0000 C   0  0  0  0  0  0  0  0  0  0  0  0
   -1.6986   -1.9497    0.0000 C   0  0  0  0  0  0  0  0  0  0  0  0
   -3.1698   -1.6573    0.0000 C   0  0  0  0  0  0  0  0  0  0  0  0
    0.8177    4.1197    0.0000 C   0  0  0  0  0  0  0  0  0  0  0  0
   -0.0801    5.3214    0.0000 O   0  0  0  0  0  0  0  0  0  0  0  0
    2.3072    4.2963    0.0000 O   0  0  0  0  0  0  0  0  0  0  0  0
  1  2  1  0
  2  3  1  0
  3  4  1  0
  4  5  2  0
  5  6  1  0
  6  7  2  0
  7  8  1  0
  8  9  2  0
  2 10  1  0
 10 11  2  0
 10 12  1  0
 12 13  1  0
 13 14  1  0
 14 15  1  0
 15 16  1  0
 16 17  2  0
 16 18  1  0
 18 19  1  0
 19 20  1  0
 20 21  2  0
 20 22  1  0
 19 23  1  0
 23 24  1  0
 24 25  1  0
 25 26  1  0
 26 27  1  0
 27 28  1  0
 28 29  1  0
 13 30  1  0
 30 31  2  0
 30 32  1  0
  9  4  1  0
 29 18  1  0
 29 24  1  0
M  CHG  3   1   1  22  -1  32  -1
M  END
>  <pIC50_class>  (9) 
negative

$$$$

     RDKit          2D

 32 34  0  0  0  0  0  0  0  0999 V2000
    2.9190   -0.8637    0.0000 N   0  0  0  0  0  0  0  0  0  0  0  0
    3.5108    0.5146    0.0000 C   0  0  0  0  0  0  0  0  0  0  0  0
    5.0004    0.6912    0.0000 C   0  0  0  0  0  0  0  0  0  0  0  0
    5.8981   -0.5105    0.0000 C   0  0  0  0  0  0  0  0  0  0  0  0
    5.3063   -1.8888    0.0000 C   0  0  0  0  0  0  0  0  0  0  0  0
    6.2040   -3.0905    0.0000 C   0  0  0  0  0  0  0  0  0  0  0  0
    7.6936   -2.9139    0.0000 C   0  0  0  0  0  0  0  0  0  0  0  0
    8.2854   -1.5356    0.0000 C   0  0  0  0  0  0  0  0  0  0  0  0
    7.3877   -0.3339    0.0000 C   0  0  0  0  0  0  0  0  0  0  0  0
    2.6131    1.7163    0.0000 C   0  0  0  0  0  0  0  0  0  0  0  0
    3.2049    3.0946    0.0000 O   0  0  0  0  0  0  0  0  0  0  0  0
    1.1235    1.5397    0.0000 N   0  0  0  0  0  0  0  0  0  0  0  0
    0.2258    2.7414    0.0000 C   0  0  0  0  0  0  0  0  0  0  0  0
   -1.2638    2.5648    0.0000 C   0  0  0  0  0  0  0  0  0  0  0  0
   -1.8556    1.1865    0.0000 C   0  0  0  0  0  0  0  0  0  0  0  0
   -3.3452    1.0099    0.0000 C   0  0  0  0  0  0  0  0  0  0  0  0
   -4.2429    2.2116    0.0000 O   0  0  0  0  0  0  0  0  0  0  0  0
   -3.9370   -0.3684    0.0000 N   0  0  0  0  0  0  0  0  0  0  0  0
   -5.4000   -0.6997    0.0000 C   0  0  0  0  0  0  0  0  0  0  0  0
   -6.5279    0.2891    0.0000 C   0  0  0  0  0  0  0  0  0  0  0  0
   -7.9482   -0.1933    0.0000 O   0  0  0  0  0  0  0  0  0  0  0  0
   -6.2356    1.7603    0.0000 O   0  0  0  0  0  0  0  0  0  0  0  0
   -5.5369   -2.1934    0.0000 C   0  0  0  0  0  0  0  0  0  0  0  0
   -4.1586   -2.7853    0.0000 C   0  0  0  0  0  0  0  0  0  0  0  0
   -3.6762   -4.2056    0.0000 C   0  0  0  0  0  0  0  0  0  0  0  0
   -2.2050   -4.4979    0.0000 C   0  0  0  0  0  0  0  0  0  0  0  0
   -1.2162   -3.3700    0.0000 C   0  0  0  0  0  0  0  0  0  0  0  0
   -1.6986   -1.9497    0.0000 C   0  0  0  0  0  0  0  0  0  0  0  0
   -3.1698   -1.6573    0.0000 C   0  0  0  0  0  0  0  0  0  0  0  0
    0.8177    4.1197    0.0000 C   0  0  0  0  0  0  0  0  0  0  0  0
   -0.0801    5.3214    0.0000 O   0  0  0  0  0  0  0  0  0  0  0  0
    2.3072    4.2963    0.0000 O   0  0  0  0  0  0  0  0  0  0  0  0
  1  2  1  0
  2  3  1  0
  3  4  1  0
  4  5  2  0
  5  6  1  0
  6  7  2  0
  7  8  1  0
  8  9  2  0
  2 10  1  0
 10 11  2  0
 10 12  1  0
 12 13  1  0
 13 14  1  0
 14 15  1  0
 15 16  1  0
 16 17  2  0
 16 18  1  0
 18 19  1  0
 19 20  1  0
 20 21  2  0
 20 22  1  0
 19 23  1  0
 23 24  1  0
 24 25  1  0
 25 26  1  0
 26 27  1  0
 27 28  1  0
 28 29  1  0
 13 30  1  0
 30 31  2  0
 30 32  1  0
  9  4  1  0
 29 18  1  0
 29 24  1  0
M  CHG  3   1   1  22  -1  32  -1
M  END
>  <pIC50_class>  (10) 
negative

$$$$

     RDKit          2D

 30 31  0  0  0  0  0  0  0  0999 V2000
   -3.7879   -5.9229    0.0000 N   0  0  0  0  0  0  0  0  0  0  0  0
   -3.7538   -4.4233    0.0000 C   0  0  0  0  0  0  0  0  0  0  0  0
   -2.4381   -3.7030    0.0000 C   0  0  0  0  0  0  0  0  0  0  0  0
   -2.4040   -2.2034    0.0000 C   0  0  0  0  0  0  0  0  0  0  0  0
   -1.0882   -1.4831    0.0000 C   0  0  0  0  0  0  0  0  0  0  0  0
   -1.0541    0.0165    0.0000 C   0  0  0  0  0  0  0  0  0  0  0  0
    0.2617    0.7368    0.0000 O   0  0  0  0  0  0  0  0  0  0  0  0
    0.2958    2.2364    0.0000 P   0  0  0  0  0  0  0  0  0  0  0  0
   -1.2039    2.2705    0.0000 O   0  0  0  0  0  0  0  0  0  0  0  0
    0.3299    3.7360    0.0000 O   0  0  0  0  0  0  0  0  0  0  0  0
    1.7954    2.2023    0.0000 C   0  0  0  0  0  0  0  0  0  0  0  0
    2.5156    0.8865    0.0000 C   0  0  0  0  0  0  0  0  0  0  0  0
    4.0153    0.8524    0.0000 C   0  0  0  0  0  0  0  0  0  0  0  0
    4.7355   -0.4633    0.0000 C   0  0  0  0  0  0  0  0  0  0  0  0
    6.2351   -0.4975    0.0000 C   0  0  0  0  0  0  0  0  0  0  0  0
    6.9554   -1.8132    0.0000 C   0  0  0  0  0  0  0  0  0  0  0  0
    8.4550   -1.8473    0.0000 C   0  0  0  0  0  0  0  0  0  0  0  0
    9.2344   -0.5657    0.0000 C   0  0  0  0  0  0  0  0  0  0  0  0
    8.5141    0.7501    0.0000 C   0  0  0  0  0  0  0  0  0  0  0  0
    7.0145    0.7842    0.0000 C   0  0  0  0  0  0  0  0  0  0  0  0
   -2.3358    0.7958    0.0000 C   0  0  0  0  0  0  0  0  0  0  0  0
   -2.3016    2.2954    0.0000 O   0  0  0  0  0  0  0  0  0  0  0  0
   -3.6515    0.0755    0.0000 N   0  0  0  0  0  0  0  0  0  0  0  0
   -3.8422   -1.4123    0.0000 C   0  0  0  0  0  0  0  0  0  0  0  0
   -5.3161   -1.6907    0.0000 C   0  0  0  0  0  0  0  0  0  0  0  0
   -6.0364   -0.3750    0.0000 C   0  0  0  0  0  0  0  0  0  0  0  0
   -5.0076    0.7167    0.0000 C   0  0  0  0  0  0  0  0  0  0  0  0
   -5.2860    2.1906    0.0000 C   0  0  0  0  0  0  0  0  0  0  0  0
   -4.1488    3.1687    0.0000 O   0  0  0  0  0  0  0  0  0  0  0  0
   -6.7017    2.6864    0.0000 O   0  0  0  0  0  0  0  0  0  0  0  0
  1  2  1  0
  2  3  1  0
  3  4  1  0
  4  5  1  0
  5  6  1  0
  6  7  1  0
  7  8  1  0
  8  9  2  0
  8 10  1  0
  8 11  1  0
 11 12  1  0
 12 13  1  0
 13 14  1  0
 14 15  1  0
 15 16  2  0
 16 17  1  0
 17 18  2  0
 18 19  1  0
 19 20  2  0
  6 21  1  0
 21 22  2  0
 21 23  1  0
 23 24  1  0
 24 25  1  0
 25 26  1  0
 26 27  1  0
 27 28  1  0
 28 29  2  0
 28 30  1  0
 20 15  1  0
 27 23  1  0
M  CHG  3   1   1  10  -1  30  -1
M  END
>  <pIC50_class>  (11) 
negative

$$$$

     RDKit          2D

 36 38  0  0  0  0  0  0  0  0999 V2000
   -3.7130   -4.5129    0.0000 N   0  0  0  0  0  0  0  0  0  0  0  0
   -3.3664   -3.0535    0.0000 C   0  0  0  0  0  0  0  0  0  0  0  0
   -1.9292   -2.6240    0.0000 C   0  0  0  0  0  0  0  0  0  0  0  0
   -1.5825   -1.1647    0.0000 C   0  0  0  0  0  0  0  0  0  0  0  0
   -0.1453   -0.7352    0.0000 C   0  0  0  0  0  0  0  0  0  0  0  0
    0.2014    0.7242    0.0000 C   0  0  0  0  0  0  0  0  0  0  0  0
    1.6386    1.1537    0.0000 O   0  0  0  0  0  0  0  0  0  0  0  0
    1.9852    2.6131    0.0000 P   0  0  0  0  0  0  0  0  0  0  0  0
    0.5259    2.9597    0.0000 O   0  0  0  0  0  0  0  0  0  0  0  0
    2.3319    4.0725    0.0000 O   0  0  0  0  0  0  0  0  0  0  0  0
    3.4446    2.2664    0.0000 C   0  0  0  0  0  0  0  0  0  0  0  0
    3.8741    0.8292    0.0000 C   0  0  0  0  0  0  0  0  0  0  0  0
    5.3335    0.4825    0.0000 C   0  0  0  0  0  0  0  0  0  0  0  0
    5.7630   -0.9547    0.0000 C   0  0  0  0  0  0  0  0  0  0  0  0
    7.2224   -1.3013    0.0000 C   0  0  0  0  0  0  0  0  0  0  0  0
    7.6518   -2.7385    0.0000 C   0  0  0  0  0  0  0  0  0  0  0  0
    9.1112   -3.0852    0.0000 C   0  0  0  0  0  0  0  0  0  0  0  0
   10.1411   -1.9947    0.0000 C   0  0  0  0  0  0  0  0  0  0  0  0
    9.7117   -0.5575    0.0000 C   0  0  0  0  0  0  0  0  0  0  0  0
    8.2523   -0.2108    0.0000 C   0  0  0  0  0  0  0  0  0  0  0  0
   -0.8892    1.7541    0.0000 C   0  0  0  0  0  0  0  0  0  0  0  0
   -0.5425    3.2135    0.0000 O   0  0  0  0  0  0  0  0  0  0  0  0
   -2.3264    1.3247    0.0000 N   0  0  0  0  0  0  0  0  0  0  0  0
   -2.8237   -0.0905    0.0000 C   0  0  0  0  0  0  0  0  0  0  0  0
   -4.3233   -0.0548    0.0000 C   0  0  0  0  0  0  0  0  0  0  0  0
   -5.2335   -1.2471    0.0000 C   0  0  0  0  0  0  0  0  0  0  0  0
   -6.7212   -1.0548    0.0000 C   0  0  0  0  0  0  0  0  0  0  0  0
   -7.6315   -2.2471    0.0000 C   0  0  0  0  0  0  0  0  0  0  0  0
   -7.0541   -3.6315    0.0000 C   0  0  0  0  0  0  0  0  0  0  0  0
   -5.5665   -3.8237    0.0000 C   0  0  0  0  0  0  0  0  0  0  0  0
   -4.6562   -2.6315    0.0000 C   0  0  0  0  0  0  0  0  0  0  0  0
   -4.7527    1.3824    0.0000 C   0  0  0  0  0  0  0  0  0  0  0  0
   -3.5186    2.2349    0.0000 C   0  0  0  0  0  0  0  0  0  0  0  0
   -3.4829    3.7345    0.0000 C   0  0  0  0  0  0  0  0  0  0  0  0
   -2.1664    4.4534    0.0000 O   0  0  0  0  0  0  0  0  0  0  0  0
   -4.7638    4.5152    0.0000 O   0  0  0  0  0  0  0  0  0  0  0  0
  1  2  1  0
  2  3  1  0
  3  4  1  0
  4  5  1  0
  5  6  1  0
  6  7  1  0
  7  8  1  0
  8  9  2  0
  8 10  1  0
  8 11  1  0
 11 12  1  0
 12 13  1  0
 13 14  1  0
 14 15  1  0
 15 16  2  0
 16 17  1  0
 17 18  2  0
 18 19  1  0
 19 20  2  0
  6 21  1  0
 21 22  2  0
 21 23  1  0
 23 24  1  0
 24 25  1  0
 25 26  1  0
 26 27  1  0
 27 28  1  0
 28 29  1  0
 29 30  1  0
 30 31  1  0
 25 32  1  0
 32 33  1  0
 33 34  1  0
 34 35  2  0
 34 36  1  0
 20 15  1  0
 33 23  1  0
 31 26  1  0
M  CHG  3   1   1  10  -1  36  -1
M  END
>  <pIC50_class>  (12) 
positive

$$$$

     RDKit          2D

 36 38  0  0  0  0  0  0  0  0999 V2000
   -3.7130   -4.5129    0.0000 N   0  0  0  0  0  0  0  0  0  0  0  0
   -3.3664   -3.0535    0.0000 C   0  0  0  0  0  0  0  0  0  0  0  0
   -1.9292   -2.6240    0.0000 C   0  0  0  0  0  0  0  0  0  0  0  0
   -1.5825   -1.1647    0.0000 C   0  0  0  0  0  0  0  0  0  0  0  0
   -0.1453   -0.7352    0.0000 C   0  0  0  0  0  0  0  0  0  0  0  0
    0.2014    0.7242    0.0000 C   0  0  0  0  0  0  0  0  0  0  0  0
    1.6386    1.1537    0.0000 O   0  0  0  0  0  0  0  0  0  0  0  0
    1.9852    2.6131    0.0000 P   0  0  0  0  0  0  0  0  0  0  0  0
    0.5259    2.9597    0.0000 O   0  0  0  0  0  0  0  0  0  0  0  0
    2.3319    4.0725    0.0000 O   0  0  0  0  0  0  0  0  0  0  0  0
    3.4446    2.2664    0.0000 C   0  0  0  0  0  0  0  0  0  0  0  0
    3.8741    0.8292    0.0000 C   0  0  0  0  0  0  0  0  0  0  0  0
    5.3335    0.4825    0.0000 C   0  0  0  0  0  0  0  0  0  0  0  0
    5.7630   -0.9547    0.0000 C   0  0  0  0  0  0  0  0  0  0  0  0
    7.2224   -1.3013    0.0000 C   0  0  0  0  0  0  0  0  0  0  0  0
    7.6518   -2.7385    0.0000 C   0  0  0  0  0  0  0  0  0  0  0  0
    9.1112   -3.0852    0.0000 C   0  0  0  0  0  0  0  0  0  0  0  0
   10.1411   -1.9947    0.0000 C   0  0  0  0  0  0  0  0  0  0  0  0
    9.7117   -0.5575    0.0000 C   0  0  0  0  0  0  0  0  0  0  0  0
    8.2523   -0.2108    0.0000 C   0  0  0  0  0  0  0  0  0  0  0  0
   -0.8892    1.7541    0.0000 C   0  0  0  0  0  0  0  0  0  0  0  0
   -0.5425    3.2135    0.0000 O   0  0  0  0  0  0  0  0  0  0  0  0
   -2.3264    1.3247    0.0000 N   0  0  0  0  0  0  0  0  0  0  0  0
   -2.8237   -0.0905    0.0000 C   0  0  0  0  0  0  0  0  0  0  0  0
   -4.3233   -0.0548    0.0000 C   0  0  0  0  0  0  0  0  0  0  0  0
   -5.2335   -1.2471    0.0000 C   0  0  0  0  0  0  0  0  0  0  0  0
   -6.7212   -1.0548    0.0000 C   0  0  0  0  0  0  0  0  0  0  0  0
   -7.6315   -2.2471    0.0000 C   0  0  0  0  0  0  0  0  0  0  0  0
   -7.0541   -3.6315    0.0000 C   0  0  0  0  0  0  0  0  0  0  0  0
   -5.5665   -3.8237    0.0000 C   0  0  0  0  0  0  0  0  0  0  0  0
   -4.6562   -2.6315    0.0000 C   0  0  0  0  0  0  0  0  0  0  0  0
   -4.7527    1.3824    0.0000 C   0  0  0  0  0  0  0  0  0  0  0  0
   -3.5186    2.2349    0.0000 C   0  0  0  0  0  0  0  0  0  0  0  0
   -3.4829    3.7345    0.0000 C   0  0  0  0  0  0  0  0  0  0  0  0
   -2.1664    4.4534    0.0000 O   0  0  0  0  0  0  0  0  0  0  0  0
   -4.7638    4.5152    0.0000 O   0  0  0  0  0  0  0  0  0  0  0  0
  1  2  1  0
  2  3  1  0
  3  4  1  0
  4  5  1  0
  5  6  1  0
  6  7  1  0
  7  8  1  0
  8  9  2  0
  8 10  1  0
  8 11  1  0
 11 12  1  0
 12 13  1  0
 13 14  1  0
 14 15  1  0
 15 16  2  0
 16 17  1  0
 17 18  2  0
 18 19  1  0
 19 20  2  0
  6 21  1  0
 21 22  2  0
 21 23  1  0
 23 24  1  0
 24 25  1  0
 25 26  1  0
 26 27  1  0
 27 28  1  0
 28 29  1  0
 29 30  1  0
 30 31  1  0
 25 32  1  0
 32 33  1  0
 33 34  1  0
 34 35  2  0
 34 36  1  0
 20 15  1  0
 33 23  1  0
 31 26  1  0
M  CHG  3   1   1  10  -1  36  -1
M  END
>  <pIC50_class>  (13) 
positive

$$$$

     RDKit          2D

 33 34  0  0  0  0  0  0  0  0999 V2000
   -3.2336   -5.7554    0.0000 N   0  0  0  0  0  0  0  0  0  0  0  0
   -3.1786   -4.2564    0.0000 C   0  0  0  0  0  0  0  0  0  0  0  0
   -1.8529   -3.5546    0.0000 C   0  0  0  0  0  0  0  0  0  0  0  0
   -1.7978   -2.0556    0.0000 C   0  0  0  0  0  0  0  0  0  0  0  0
   -0.4721   -1.3537    0.0000 C   0  0  0  0  0  0  0  0  0  0  0  0
   -0.4171    0.1452    0.0000 C   0  0  0  0  0  0  0  0  0  0  0  0
    0.9086    0.8471    0.0000 O   0  0  0  0  0  0  0  0  0  0  0  0
    0.9636    2.3460    0.0000 P   0  0  0  0  0  0  0  0  0  0  0  0
   -0.5353    2.4011    0.0000 O   0  0  0  0  0  0  0  0  0  0  0  0
    1.0187    3.8450    0.0000 O   0  0  0  0  0  0  0  0  0  0  0  0
    2.4626    2.2910    0.0000 C   0  0  0  0  0  0  0  0  0  0  0  0
    3.1645    0.9653    0.0000 C   0  0  0  0  0  0  0  0  0  0  0  0
    4.6634    0.9103    0.0000 C   0  0  0  0  0  0  0  0  0  0  0  0
    5.3653   -0.4154    0.0000 C   0  0  0  0  0  0  0  0  0  0  0  0
    6.8642   -0.4705    0.0000 C   0  0  0  0  0  0  0  0  0  0  0  0
    7.5661   -1.7962    0.0000 C   0  0  0  0  0  0  0  0  0  0  0  0
    9.0651   -1.8512    0.0000 C   0  0  0  0  0  0  0  0  0  0  0  0
    9.8622   -0.5806    0.0000 C   0  0  0  0  0  0  0  0  0  0  0  0
    9.1604    0.7451    0.0000 C   0  0  0  0  0  0  0  0  0  0  0  0
    7.6614    0.8001    0.0000 C   0  0  0  0  0  0  0  0  0  0  0  0
   -1.6877    0.9424    0.0000 C   0  0  0  0  0  0  0  0  0  0  0  0
   -1.6327    2.4414    0.0000 O   0  0  0  0  0  0  0  0  0  0  0  0
   -3.0134    0.2406    0.0000 N   0  0  0  0  0  0  0  0  0  0  0  0
   -3.0685   -1.2584    0.0000 C   0  0  0  0  0  0  0  0  0  0  0  0
   -4.3942   -1.9602    0.0000 C   0  0  0  0  0  0  0  0  0  0  0  0
   -5.6648   -1.1630    0.0000 O   0  0  0  0  0  0  0  0  0  0  0  0
   -4.4492   -3.4592    0.0000 O   0  0  0  0  0  0  0  0  0  0  0  0
   -4.2841    1.0378    0.0000 C   0  0  0  0  0  0  0  0  0  0  0  0
   -4.2290    2.5368    0.0000 C   0  0  0  0  0  0  0  0  0  0  0  0
   -5.4996    3.3339    0.0000 C   0  0  0  0  0  0  0  0  0  0  0  0
   -6.8253    2.6321    0.0000 C   0  0  0  0  0  0  0  0  0  0  0  0
   -6.8804    1.1331    0.0000 C   0  0  0  0  0  0  0  0  0  0  0  0
   -5.6097    0.3360    0.0000 C   0  0  0  0  0  0  0  0  0  0  0  0
  1  2  1  0
  2  3  1  0
  3  4  1  0
  4  5  1  0
  5  6  1  0
  6  7  1  0
  7  8  1  0
  8  9  2  0
  8 10  1  0
  8 11  1  0
 11 12  1  0
 12 13  1  0
 13 14  1  0
 14 15  1  0
 15 16  2  0
 16 17  1  0
 17 18  2  0
 18 19  1  0
 19 20  2  0
  6 21  1  0
 21 22  2  0
 21 23  1  0
 23 24  1  0
 24 25  1  0
 25 26  2  0
 25 27  1  0
 23 28  1  0
 28 29  2  0
 29 30  1  0
 30 31  2  0
 31 32  1  0
 32 33  2  0
 20 15  1  0
 33 28  1  0
M  CHG  3   1   1  10  -1  27  -1
M  END
>  <pIC50_class>  (14) 
positive

$$$$

     RDKit          2D

 37 38  0  0  0  0  0  0  0  0999 V2000
   -5.5672    4.1640    0.0000 C   0  0  0  0  0  0  0  0  0  0  0  0
   -6.2326    2.8197    0.0000 O   0  0  0  0  0  0  0  0  0  0  0  0
   -5.4010    1.5713    0.0000 C   0  0  0  0  0  0  0  0  0  0  0  0
   -3.9041    1.6673    0.0000 C   0  0  0  0  0  0  0  0  0  0  0  0
   -3.0725    0.4189    0.0000 C   0  0  0  0  0  0  0  0  0  0  0  0
   -3.7378   -0.9255    0.0000 C   0  0  0  0  0  0  0  0  0  0  0  0
   -2.9062   -2.1739    0.0000 N   0  0  0  0  0  0  0  0  0  0  0  0
   -3.5716   -3.5183    0.0000 C   0  0  0  0  0  0  0  0  0  0  0  0
   -2.7400   -4.7666    0.0000 C   0  0  0  0  0  0  0  0  0  0  0  0
   -1.2431   -4.6707    0.0000 O   0  0  0  0  0  0  0  0  0  0  0  0
   -3.4053   -6.1110    0.0000 O   0  0  0  0  0  0  0  0  0  0  0  0
   -1.4093   -2.0779    0.0000 C   0  0  0  0  0  0  0  0  0  0  0  0
   -0.5777   -3.3263    0.0000 O   0  0  0  0  0  0  0  0  0  0  0  0
   -0.7440   -0.7335    0.0000 C   0  0  0  0  0  0  0  0  0  0  0  0
   -1.5755    0.5148    0.0000 C   0  0  0  0  0  0  0  0  0  0  0  0
   -0.9102    1.8592    0.0000 C   0  0  0  0  0  0  0  0  0  0  0  0
   -1.7418    3.1076    0.0000 C   0  0  0  0  0  0  0  0  0  0  0  0
   -1.0764    4.4520    0.0000 C   0  0  0  0  0  0  0  0  0  0  0  0
   -1.9080    5.7004    0.0000 N   0  0  0  0  0  0  0  0  0  0  0  0
    0.7530   -0.6376    0.0000 O   0  0  0  0  0  0  0  0  0  0  0  0
    1.4183    0.7068    0.0000 P   0  0  0  0  0  0  0  0  0  0  0  0
    0.0739    1.3721    0.0000 O   0  0  0  0  0  0  0  0  0  0  0  0
    2.0837    2.0512    0.0000 O   0  0  0  0  0  0  0  0  0  0  0  0
    2.7627    0.0415    0.0000 C   0  0  0  0  0  0  0  0  0  0  0  0
    4.0111    0.8730    0.0000 C   0  0  0  0  0  0  0  0  0  0  0  0
    5.3554    0.2077    0.0000 C   0  0  0  0  0  0  0  0  0  0  0  0
    6.6038    1.0393    0.0000 C   0  0  0  0  0  0  0  0  0  0  0  0
    7.9482    0.3739    0.0000 C   0  0  0  0  0  0  0  0  0  0  0  0
    8.0442   -1.1230    0.0000 C   0  0  0  0  0  0  0  0  0  0  0  0
    9.3885   -1.7883    0.0000 C   0  0  0  0  0  0  0  0  0  0  0  0
   10.6369   -0.9567    0.0000 C   0  0  0  0  0  0  0  0  0  0  0  0
   10.5409    0.5402    0.0000 C   0  0  0  0  0  0  0  0  0  0  0  0
    9.1966    1.2055    0.0000 C   0  0  0  0  0  0  0  0  0  0  0  0
   -5.2347   -1.0215    0.0000 C   0  0  0  0  0  0  0  0  0  0  0  0
   -6.0663    0.2269    0.0000 C   0  0  0  0  0  0  0  0  0  0  0  0
   -7.5632    0.1309    0.0000 O   0  0  0  0  0  0  0  0  0  0  0  0
   -8.2286   -1.2134    0.0000 C   0  0  0  0  0  0  0  0  0  0  0  0
  1  2  1  0
  2  3  1  0
  3  4  2  0
  4  5  1  0
  5  6  2  0
  6  7  1  0
  7  8  1  0
  8  9  1  0
  9 10  2  0
  9 11  1  0
  7 12  1  0
 12 13  2  0
 12 14  1  0
 14 15  1  0
 15 16  1  0
 16 17  1  0
 17 18  1  0
 18 19  1  0
 14 20  1  0
 20 21  1  0
 21 22  2  0
 21 23  1  0
 21 24  1  0
 24 25  1  0
 25 26  1  0
 26 27  1  0
 27 28  1  0
 28 29  2  0
 29 30  1  0
 30 31  2  0
 31 32  1  0
 32 33  2  0
  6 34  1  0
 34 35  2  0
 35 36  1  0
 36 37  1  0
 35  3  1  0
 33 28  1  0
M  CHG  3  11  -1  19   1  23  -1
M  END
>  <pIC50_class>  (15) 
positive

$$$$

     RDKit          2D

 36 38  0  0  0  0  0  0  0  0999 V2000
    1.8840    8.1795    0.0000 N   0  0  0  0  0  0  0  0  0  0  0  0
    1.7859    6.6827    0.0000 C   0  0  0  0  0  0  0  0  0  0  0  0
    0.4405    6.0193    0.0000 C   0  0  0  0  0  0  0  0  0  0  0  0
    0.3424    4.5225    0.0000 C   0  0  0  0  0  0  0  0  0  0  0  0
   -1.0029    3.8591    0.0000 C   0  0  0  0  0  0  0  0  0  0  0  0
   -1.1011    2.3623    0.0000 C   0  0  0  0  0  0  0  0  0  0  0  0
    0.1461    1.5289    0.0000 O   0  0  0  0  0  0  0  0  0  0  0  0
    1.4914    2.1923    0.0000 P   0  0  0  0  0  0  0  0  0  0  0  0
    0.8280    3.5376    0.0000 O   0  0  0  0  0  0  0  0  0  0  0  0
    2.8368    2.8557    0.0000 O   0  0  0  0  0  0  0  0  0  0  0  0
    2.1548    0.8470    0.0000 C   0  0  0  0  0  0  0  0  0  0  0  0
    3.6516    0.7488    0.0000 C   0  0  0  0  0  0  0  0  0  0  0  0
    4.3150   -0.5965    0.0000 C   0  0  0  0  0  0  0  0  0  0  0  0
    5.8118   -0.6946    0.0000 C   0  0  0  0  0  0  0  0  0  0  0  0
    6.4752   -2.0400    0.0000 C   0  0  0  0  0  0  0  0  0  0  0  0
    5.6418   -3.2871    0.0000 C   0  0  0  0  0  0  0  0  0  0  0  0
    6.3052   -4.6325    0.0000 C   0  0  0  0  0  0  0  0  0  0  0  0
    7.8020   -4.7306    0.0000 C   0  0  0  0  0  0  0  0  0  0  0  0
    8.6354   -3.4834    0.0000 C   0  0  0  0  0  0  0  0  0  0  0  0
    7.9720   -2.1381    0.0000 C   0  0  0  0  0  0  0  0  0  0  0  0
   -2.4464    1.6989    0.0000 C   0  0  0  0  0  0  0  0  0  0  0  0
   -3.6936    2.5323    0.0000 O   0  0  0  0  0  0  0  0  0  0  0  0
   -2.5445    0.2021    0.0000 N   0  0  0  0  0  0  0  0  0  0  0  0
   -1.2974   -0.6313    0.0000 C   0  0  0  0  0  0  0  0  0  0  0  0
   -1.3955   -2.1281    0.0000 C   0  0  0  0  0  0  0  0  0  0  0  0
   -0.1483   -2.9614    0.0000 O   0  0  0  0  0  0  0  0  0  0  0  0
   -2.7408   -2.7915    0.0000 O   0  0  0  0  0  0  0  0  0  0  0  0
   -3.8899   -0.4613    0.0000 C   0  0  0  0  0  0  0  0  0  0  0  0
   -5.1370    0.3721    0.0000 C   0  0  0  0  0  0  0  0  0  0  0  0
   -6.4824   -0.2913    0.0000 C   0  0  0  0  0  0  0  0  0  0  0  0
   -6.5805   -1.7881    0.0000 C   0  0  0  0  0  0  0  0  0  0  0  0
   -5.3333   -2.6215    0.0000 C   0  0  0  0  0  0  0  0  0  0  0  0
   -3.9880   -1.9581    0.0000 C   0  0  0  0  0  0  0  0  0  0  0  0
   -5.7405   -4.0651    0.0000 O   0  0  0  0  0  0  0  0  0  0  0  0
   -7.2394   -4.1240    0.0000 C   0  0  0  0  0  0  0  0  0  0  0  0
   -7.7585   -2.7167    0.0000 O   0  0  0  0  0  0  0  0  0  0  0  0
  1  2  1  0
  2  3  1  0
  3  4  1  0
  4  5  1  0
  5  6  1  0
  6  7  1  0
  7  8  1  0
  8  9  2  0
  8 10  1  0
  8 11  1  0
 11 12  1  0
 12 13  1  0
 13 14  1  0
 14 15  1  0
 15 16  2  0
 16 17  1  0
 17 18  2  0
 18 19  1  0
 19 20  2  0
  6 21  1  0
 21 22  2  0
 21 23  1  0
 23 24  1  0
 24 25  1  0
 25 26  2  0
 25 27  1  0
 23 28  1  0
 28 29  2  0
 29 30  1  0
 30 31  2  0
 31 32  1  0
 32 33  2  0
 32 34  1  0
 34 35  1  0
 35 36  1  0
 20 15  1  0
 33 28  1  0
 36 31  1  0
M  CHG  3   1   1  10  -1  27  -1
M  END
>  <pIC50_class>  (16) 
positive

$$$$

     RDKit          2D

 34 36  0  0  0  0  0  0  0  0999 V2000
    2.4398   -7.4907    0.0000 N   0  0  0  0  0  0  0  0  0  0  0  0
    1.8914   -6.0946    0.0000 C   0  0  0  0  0  0  0  0  0  0  0  0
    2.8262   -4.9216    0.0000 C   0  0  0  0  0  0  0  0  0  0  0  0
    2.2778   -3.5254    0.0000 C   0  0  0  0  0  0  0  0  0  0  0  0
    3.2127   -2.3524    0.0000 C   0  0  0  0  0  0  0  0  0  0  0  0
    2.6642   -0.9563    0.0000 C   0  0  0  0  0  0  0  0  0  0  0  0
    1.1809   -0.7331    0.0000 O   0  0  0  0  0  0  0  0  0  0  0  0
    0.2460   -1.9062    0.0000 P   0  0  0  0  0  0  0  0  0  0  0  0
    1.4191   -2.8411    0.0000 O   0  0  0  0  0  0  0  0  0  0  0  0
   -0.6888   -3.0792    0.0000 O   0  0  0  0  0  0  0  0  0  0  0  0
   -0.9270   -0.9713    0.0000 C   0  0  0  0  0  0  0  0  0  0  0  0
   -2.3231   -1.5197    0.0000 C   0  0  0  0  0  0  0  0  0  0  0  0
   -3.4962   -0.5849    0.0000 C   0  0  0  0  0  0  0  0  0  0  0  0
   -4.8923   -1.1333    0.0000 C   0  0  0  0  0  0  0  0  0  0  0  0
   -6.0653   -0.1984    0.0000 C   0  0  0  0  0  0  0  0  0  0  0  0
   -5.8422    1.2849    0.0000 C   0  0  0  0  0  0  0  0  0  0  0  0
   -7.0153    2.2198    0.0000 C   0  0  0  0  0  0  0  0  0  0  0  0
   -8.4114    1.6713    0.0000 C   0  0  0  0  0  0  0  0  0  0  0  0
   -8.6345    0.1880    0.0000 C   0  0  0  0  0  0  0  0  0  0  0  0
   -7.4615   -0.7469    0.0000 C   0  0  0  0  0  0  0  0  0  0  0  0
    3.5991    0.2168    0.0000 C   0  0  0  0  0  0  0  0  0  0  0  0
    5.0824   -0.0063    0.0000 O   0  0  0  0  0  0  0  0  0  0  0  0
    3.0507    1.6129    0.0000 N   0  0  0  0  0  0  0  0  0  0  0  0
    1.5988    1.9899    0.0000 C   0  0  0  0  0  0  0  0  0  0  0  0
    0.3472    1.1631    0.0000 C   0  0  0  0  0  0  0  0  0  0  0  0
   -0.9946    1.8337    0.0000 C   0  0  0  0  0  0  0  0  0  0  0  0
   -1.0847    3.3310    0.0000 C   0  0  0  0  0  0  0  0  0  0  0  0
    0.1669    4.1577    0.0000 C   0  0  0  0  0  0  0  0  0  0  0  0
    1.5086    3.4871    0.0000 C   0  0  0  0  0  0  0  0  0  0  0  0
    2.9048    4.0356    0.0000 C   0  0  0  0  0  0  0  0  0  0  0  0
    3.8578    2.8773    0.0000 C   0  0  0  0  0  0  0  0  0  0  0  0
    5.3551    2.9674    0.0000 C   0  0  0  0  0  0  0  0  0  0  0  0
    6.0257    4.3092    0.0000 O   0  0  0  0  0  0  0  0  0  0  0  0
    6.1818    1.7158    0.0000 O   0  0  0  0  0  0  0  0  0  0  0  0
  1  2  1  0
  2  3  1  0
  3  4  1  0
  4  5  1  0
  5  6  1  0
  6  7  1  0
  7  8  1  0
  8  9  2  0
  8 10  1  0
  8 11  1  0
 11 12  1  0
 12 13  1  0
 13 14  1  0
 14 15  1  0
 15 16  2  0
 16 17  1  0
 17 18  2  0
 18 19  1  0
 19 20  2  0
  6 21  1  0
 21 22  2  0
 21 23  1  0
 23 24  1  0
 24 25  2  0
 25 26  1  0
 26 27  2  0
 27 28  1  0
 28 29  2  0
 29 30  1  0
 30 31  1  0
 31 32  1  0
 32 33  2  0
 32 34  1  0
 20 15  1  0
 31 23  1  0
 29 24  1  0
M  CHG  3   1   1  10  -1  34  -1
M  END
>  <pIC50_class>  (17) 
positive

$$$$

     RDKit          2D

 33 34  0  0  0  0  0  0  0  0999 V2000
   -3.2336   -5.7554    0.0000 N   0  0  0  0  0  0  0  0  0  0  0  0
   -3.1786   -4.2564    0.0000 C   0  0  0  0  0  0  0  0  0  0  0  0
   -1.8529   -3.5546    0.0000 C   0  0  0  0  0  0  0  0  0  0  0  0
   -1.7978   -2.0556    0.0000 C   0  0  0  0  0  0  0  0  0  0  0  0
   -0.4721   -1.3537    0.0000 C   0  0  0  0  0  0  0  0  0  0  0  0
   -0.4171    0.1452    0.0000 C   0  0  0  0  0  0  0  0  0  0  0  0
    0.9086    0.8471    0.0000 O   0  0  0  0  0  0  0  0  0  0  0  0
    0.9636    2.3460    0.0000 P   0  0  0  0  0  0  0  0  0  0  0  0
   -0.5353    2.4011    0.0000 O   0  0  0  0  0  0  0  0  0  0  0  0
    1.0187    3.8450    0.0000 O   0  0  0  0  0  0  0  0  0  0  0  0
    2.4626    2.2910    0.0000 C   0  0  0  0  0  0  0  0  0  0  0  0
    3.1645    0.9653    0.0000 C   0  0  0  0  0  0  0  0  0  0  0  0
    4.6634    0.9103    0.0000 C   0  0  0  0  0  0  0  0  0  0  0  0
    5.3653   -0.4154    0.0000 C   0  0  0  0  0  0  0  0  0  0  0  0
    6.8642   -0.4705    0.0000 C   0  0  0  0  0  0  0  0  0  0  0  0
    7.5661   -1.7962    0.0000 C   0  0  0  0  0  0  0  0  0  0  0  0
    9.0651   -1.8512    0.0000 C   0  0  0  0  0  0  0  0  0  0  0  0
    9.8622   -0.5806    0.0000 C   0  0  0  0  0  0  0  0  0  0  0  0
    9.1604    0.7451    0.0000 C   0  0  0  0  0  0  0  0  0  0  0  0
    7.6614    0.8001    0.0000 C   0  0  0  0  0  0  0  0  0  0  0  0
   -1.6877    0.9424    0.0000 C   0  0  0  0  0  0  0  0  0  0  0  0
   -1.6327    2.4414    0.0000 O   0  0  0  0  0  0  0  0  0  0  0  0
   -3.0134    0.2406    0.0000 N   0  0  0  0  0  0  0  0  0  0  0  0
   -3.0685   -1.2584    0.0000 C   0  0  0  0  0  0  0  0  0  0  0  0
   -4.3942   -1.9602    0.0000 C   0  0  0  0  0  0  0  0  0  0  0  0
   -5.6648   -1.1630    0.0000 O   0  0  0  0  0  0  0  0  0  0  0  0
   -4.4492   -3.4592    0.0000 O   0  0  0  0  0  0  0  0  0  0  0  0
   -4.2841    1.0378    0.0000 C   0  0  0  0  0  0  0  0  0  0  0  0
   -4.2290    2.5368    0.0000 C   0  0  0  0  0  0  0  0  0  0  0  0
   -5.4996    3.3339    0.0000 C   0  0  0  0  0  0  0  0  0  0  0  0
   -6.8253    2.6321    0.0000 C   0  0  0  0  0  0  0  0  0  0  0  0
   -6.8804    1.1331    0.0000 C   0  0  0  0  0  0  0  0  0  0  0  0
   -5.6097    0.3360    0.0000 C   0  0  0  0  0  0  0  0  0  0  0  0
  1  2  1  0
  2  3  1  0
  3  4  1  0
  4  5  1  0
  5  6  1  0
  6  7  1  0
  7  8  1  0
  8  9  2  0
  8 10  1  0
  8 11  1  0
 11 12  1  0
 12 13  1  0
 13 14  1  0
 14 15  1  0
 15 16  2  0
 16 17  1  0
 17 18  2  0
 18 19  1  0
 19 20  2  0
  6 21  1  0
 21 22  2  0
 21 23  1  0
 23 24  1  0
 24 25  1  0
 25 26  2  0
 25 27  1  0
 23 28  1  0
 28 29  1  0
 29 30  1  0
 30 31  1  0
 31 32  1  0
 32 33  1  0
 20 15  1  0
 33 28  1  0
M  CHG  3   1   1  10  -1  27  -1
M  END
>  <pIC50_class>  (18) 
positive

$$$$

     RDKit          2D

 36 38  0  0  0  0  0  0  0  0999 V2000
   -3.7130   -4.5129    0.0000 N   0  0  0  0  0  0  0  0  0  0  0  0
   -3.3664   -3.0535    0.0000 C   0  0  0  0  0  0  0  0  0  0  0  0
   -1.9292   -2.6240    0.0000 C   0  0  0  0  0  0  0  0  0  0  0  0
   -1.5825   -1.1647    0.0000 C   0  0  0  0  0  0  0  0  0  0  0  0
   -0.1453   -0.7352    0.0000 C   0  0  0  0  0  0  0  0  0  0  0  0
    0.2014    0.7242    0.0000 C   0  0  0  0  0  0  0  0  0  0  0  0
    1.6386    1.1537    0.0000 O   0  0  0  0  0  0  0  0  0  0  0  0
    1.9852    2.6131    0.0000 P   0  0  0  0  0  0  0  0  0  0  0  0
    0.5259    2.9597    0.0000 O   0  0  0  0  0  0  0  0  0  0  0  0
    2.3319    4.0725    0.0000 O   0  0  0  0  0  0  0  0  0  0  0  0
    3.4446    2.2664    0.0000 C   0  0  0  0  0  0  0  0  0  0  0  0
    3.8741    0.8292    0.0000 C   0  0  0  0  0  0  0  0  0  0  0  0
    5.3335    0.4825    0.0000 C   0  0  0  0  0  0  0  0  0  0  0  0
    5.7630   -0.9547    0.0000 C   0  0  0  0  0  0  0  0  0  0  0  0
    7.2224   -1.3013    0.0000 C   0  0  0  0  0  0  0  0  0  0  0  0
    7.6518   -2.7385    0.0000 C   0  0  0  0  0  0  0  0  0  0  0  0
    9.1112   -3.0852    0.0000 C   0  0  0  0  0  0  0  0  0  0  0  0
   10.1411   -1.9947    0.0000 C   0  0  0  0  0  0  0  0  0  0  0  0
    9.7117   -0.5575    0.0000 C   0  0  0  0  0  0  0  0  0  0  0  0
    8.2523   -0.2108    0.0000 C   0  0  0  0  0  0  0  0  0  0  0  0
   -0.8892    1.7541    0.0000 C   0  0  0  0  0  0  0  0  0  0  0  0
   -0.5425    3.2135    0.0000 O   0  0  0  0  0  0  0  0  0  0  0  0
   -2.3264    1.3247    0.0000 N   0  0  0  0  0  0  0  0  0  0  0  0
   -2.8237   -0.0905    0.0000 C   0  0  0  0  0  0  0  0  0  0  0  0
   -4.3233   -0.0548    0.0000 C   0  0  0  0  0  0  0  0  0  0  0  0
   -5.2335   -1.2471    0.0000 C   0  0  0  0  0  0  0  0  0  0  0  0
   -6.7212   -1.0548    0.0000 C   0  0  0  0  0  0  0  0  0  0  0  0
   -7.6315   -2.2471    0.0000 C   0  0  0  0  0  0  0  0  0  0  0  0
   -7.0541   -3.6315    0.0000 C   0  0  0  0  0  0  0  0  0  0  0  0
   -5.5665   -3.8237    0.0000 C   0  0  0  0  0  0  0  0  0  0  0  0
   -4.6562   -2.6315    0.0000 C   0  0  0  0  0  0  0  0  0  0  0  0
   -4.7527    1.3824    0.0000 C   0  0  0  0  0  0  0  0  0  0  0  0
   -3.5186    2.2349    0.0000 C   0  0  0  0  0  0  0  0  0  0  0  0
   -3.4829    3.7345    0.0000 C   0  0  0  0  0  0  0  0  0  0  0  0
   -2.1664    4.4534    0.0000 O   0  0  0  0  0  0  0  0  0  0  0  0
   -4.7638    4.5152    0.0000 O   0  0  0  0  0  0  0  0  0  0  0  0
  1  2  1  0
  2  3  1  0
  3  4  1  0
  4  5  1  0
  5  6  1  0
  6  7  1  0
  7  8  1  0
  8  9  2  0
  8 10  1  0
  8 11  1  0
 11 12  1  0
 12 13  1  0
 13 14  1  0
 14 15  1  0
 15 16  2  0
 16 17  1  0
 17 18  2  0
 18 19  1  0
 19 20  2  0
  6 21  1  0
 21 22  2  0
 21 23  1  0
 23 24  1  0
 24 25  1  0
 25 26  1  0
 26 27  2  0
 27 28  1  0
 28 29  2  0
 29 30  1  0
 30 31  2  0
 25 32  1  0
 32 33  1  0
 33 34  1  0
 34 35  2  0
 34 36  1  0
 20 15  1  0
 33 23  1  0
 31 26  1  0
M  CHG  3   1   1  10  -1  36  -1
M  END
>  <pIC50_class>  (19) 
negative

$$$$

     RDKit          2D

 36 38  0  0  0  0  0  0  0  0999 V2000
   -3.7130   -4.5129    0.0000 N   0  0  0  0  0  0  0  0  0  0  0  0
   -3.3664   -3.0535    0.0000 C   0  0  0  0  0  0  0  0  0  0  0  0
   -1.9292   -2.6240    0.0000 C   0  0  0  0  0  0  0  0  0  0  0  0
   -1.5825   -1.1647    0.0000 C   0  0  0  0  0  0  0  0  0  0  0  0
   -0.1453   -0.7352    0.0000 C   0  0  0  0  0  0  0  0  0  0  0  0
    0.2014    0.7242    0.0000 C   0  0  0  0  0  0  0  0  0  0  0  0
    1.6386    1.1537    0.0000 O   0  0  0  0  0  0  0  0  0  0  0  0
    1.9852    2.6131    0.0000 P   0  0  0  0  0  0  0  0  0  0  0  0
    0.5259    2.9597    0.0000 O   0  0  0  0  0  0  0  0  0  0  0  0
    2.3319    4.0725    0.0000 O   0  0  0  0  0  0  0  0  0  0  0  0
    3.4446    2.2664    0.0000 C   0  0  0  0  0  0  0  0  0  0  0  0
    3.8741    0.8292    0.0000 C   0  0  0  0  0  0  0  0  0  0  0  0
    5.3335    0.4825    0.0000 C   0  0  0  0  0  0  0  0  0  0  0  0
    5.7630   -0.9547    0.0000 C   0  0  0  0  0  0  0  0  0  0  0  0
    7.2224   -1.3013    0.0000 C   0  0  0  0  0  0  0  0  0  0  0  0
    7.6518   -2.7385    0.0000 C   0  0  0  0  0  0  0  0  0  0  0  0
    9.1112   -3.0852    0.0000 C   0  0  0  0  0  0  0  0  0  0  0  0
   10.1411   -1.9947    0.0000 C   0  0  0  0  0  0  0  0  0  0  0  0
    9.7117   -0.5575    0.0000 C   0  0  0  0  0  0  0  0  0  0  0  0
    8.2523   -0.2108    0.0000 C   0  0  0  0  0  0  0  0  0  0  0  0
   -0.8892    1.7541    0.0000 C   0  0  0  0  0  0  0  0  0  0  0  0
   -0.5425    3.2135    0.0000 O   0  0  0  0  0  0  0  0  0  0  0  0
   -2.3264    1.3247    0.0000 N   0  0  0  0  0  0  0  0  0  0  0  0
   -2.8237   -0.0905    0.0000 C   0  0  0  0  0  0  0  0  0  0  0  0
   -4.3233   -0.0548    0.0000 C   0  0  0  0  0  0  0  0  0  0  0  0
   -5.2335   -1.2471    0.0000 C   0  0  0  0  0  0  0  0  0  0  0  0
   -6.7212   -1.0548    0.0000 C   0  0  0  0  0  0  0  0  0  0  0  0
   -7.6315   -2.2471    0.0000 C   0  0  0  0  0  0  0  0  0  0  0  0
   -7.0541   -3.6315    0.0000 C   0  0  0  0  0  0  0  0  0  0  0  0
   -5.5665   -3.8237    0.0000 C   0  0  0  0  0  0  0  0  0  0  0  0
   -4.6562   -2.6315    0.0000 C   0  0  0  0  0  0  0  0  0  0  0  0
   -4.7527    1.3824    0.0000 C   0  0  0  0  0  0  0  0  0  0  0  0
   -3.5186    2.2349    0.0000 C   0  0  0  0  0  0  0  0  0  0  0  0
   -3.4829    3.7345    0.0000 C   0  0  0  0  0  0  0  0  0  0  0  0
   -2.1664    4.4534    0.0000 O   0  0  0  0  0  0  0  0  0  0  0  0
   -4.7638    4.5152    0.0000 O   0  0  0  0  0  0  0  0  0  0  0  0
  1  2  1  0
  2  3  1  0
  3  4  1  0
  4  5  1  0
  5  6  1  0
  6  7  1  0
  7  8  1  0
  8  9  2  0
  8 10  1  0
  8 11  1  0
 11 12  1  0
 12 13  1  0
 13 14  1  0
 14 15  1  0
 15 16  2  0
 16 17  1  0
 17 18  2  0
 18 19  1  0
 19 20  2  0
  6 21  1  0
 21 22  2  0
 21 23  1  0
 23 24  1  0
 24 25  1  0
 25 26  1  0
 26 27  2  0
 27 28  1  0
 28 29  2  0
 29 30  1  0
 30 31  2  0
 25 32  1  0
 32 33  1  0
 33 34  1  0
 34 35  2  0
 34 36  1  0
 20 15  1  0
 33 23  1  0
 31 26  1  0
M  CHG  3   1   1  10  -1  36  -1
M  END
>  <pIC50_class>  (20) 
positive

$$$$

     RDKit          2D

 37 39  0  0  0  0  0  0  0  0999 V2000
   -3.0482   -4.8584    0.0000 N   0  0  0  0  0  0  0  0  0  0  0  0
   -2.7591   -3.3865    0.0000 C   0  0  0  0  0  0  0  0  0  0  0  0
   -1.3399   -2.9009    0.0000 C   0  0  0  0  0  0  0  0  0  0  0  0
   -1.0508   -1.4290    0.0000 C   0  0  0  0  0  0  0  0  0  0  0  0
    0.3684   -0.9434    0.0000 C   0  0  0  0  0  0  0  0  0  0  0  0
    0.6574    0.5285    0.0000 C   0  0  0  0  0  0  0  0  0  0  0  0
    2.0766    1.0141    0.0000 O   0  0  0  0  0  0  0  0  0  0  0  0
    2.3657    2.4860    0.0000 P   0  0  0  0  0  0  0  0  0  0  0  0
    0.8938    2.7750    0.0000 O   0  0  0  0  0  0  0  0  0  0  0  0
    2.6547    3.9579    0.0000 O   0  0  0  0  0  0  0  0  0  0  0  0
    3.8376    2.1969    0.0000 C   0  0  0  0  0  0  0  0  0  0  0  0
    4.3232    0.7777    0.0000 C   0  0  0  0  0  0  0  0  0  0  0  0
    5.7951    0.4887    0.0000 C   0  0  0  0  0  0  0  0  0  0  0  0
    6.2807   -0.9306    0.0000 C   0  0  0  0  0  0  0  0  0  0  0  0
    7.7526   -1.2196    0.0000 C   0  0  0  0  0  0  0  0  0  0  0  0
    8.2382   -2.6388    0.0000 C   0  0  0  0  0  0  0  0  0  0  0  0
    9.7101   -2.9279    0.0000 C   0  0  0  0  0  0  0  0  0  0  0  0
   10.6964   -1.7977    0.0000 C   0  0  0  0  0  0  0  0  0  0  0  0
   10.2107   -0.3785    0.0000 C   0  0  0  0  0  0  0  0  0  0  0  0
    8.7389   -0.0894    0.0000 C   0  0  0  0  0  0  0  0  0  0  0  0
   -0.4727    1.5147    0.0000 C   0  0  0  0  0  0  0  0  0  0  0  0
   -0.1837    2.9866    0.0000 O   0  0  0  0  0  0  0  0  0  0  0  0
   -1.8920    1.0291    0.0000 N   0  0  0  0  0  0  0  0  0  0  0  0
   -2.3333   -0.4045    0.0000 C   0  0  0  0  0  0  0  0  0  0  0  0
   -3.8331   -0.4278    0.0000 C   0  0  0  0  0  0  0  0  0  0  0  0
   -4.6958   -1.6548    0.0000 C   0  0  0  0  0  0  0  0  0  0  0  0
   -6.1899   -1.5212    0.0000 C   0  0  0  0  0  0  0  0  0  0  0  0
   -6.8212   -0.1605    0.0000 C   0  0  0  0  0  0  0  0  0  0  0  0
   -8.3152   -0.0269    0.0000 C   0  0  0  0  0  0  0  0  0  0  0  0
   -9.1779   -1.2540    0.0000 C   0  0  0  0  0  0  0  0  0  0  0  0
   -8.5466   -2.6147    0.0000 C   0  0  0  0  0  0  0  0  0  0  0  0
   -7.0526   -2.7483    0.0000 C   0  0  0  0  0  0  0  0  0  0  0  0
   -4.3187    0.9915    0.0000 C   0  0  0  0  0  0  0  0  0  0  0  0
   -3.1190    1.8919    0.0000 C   0  0  0  0  0  0  0  0  0  0  0  0
   -3.1423    3.3917    0.0000 C   0  0  0  0  0  0  0  0  0  0  0  0
   -1.8551    4.1618    0.0000 O   0  0  0  0  0  0  0  0  0  0  0  0
   -4.4528    4.1214    0.0000 O   0  0  0  0  0  0  0  0  0  0  0  0
  1  2  1  0
  2  3  1  0
  3  4  1  0
  4  5  1  0
  5  6  1  0
  6  7  1  0
  7  8  1  0
  8  9  2  0
  8 10  1  0
  8 11  1  0
 11 12  1  0
 12 13  1  0
 13 14  1  0
 14 15  1  0
 15 16  2  0
 16 17  1  0
 17 18  2  0
 18 19  1  0
 19 20  2  0
  6 21  1  0
 21 22  2  0
 21 23  1  0
 23 24  1  0
 24 25  1  0
 25 26  1  0
 26 27  1  0
 27 28  2  0
 28 29  1  0
 29 30  2  0
 30 31  1  0
 31 32  2  0
 25 33  1  0
 33 34  1  0
 34 35  1  0
 35 36  2  0
 35 37  1  0
 20 15  1  0
 34 23  1  0
 32 27  1  0
M  CHG  3   1   1  10  -1  37  -1
M  END
>  <pIC50_class>  (21) 
positive

$$$$

     RDKit          2D

 37 39  0  0  0  0  0  0  0  0999 V2000
   -3.0482   -4.8584    0.0000 N   0  0  0  0  0  0  0  0  0  0  0  0
   -2.7591   -3.3865    0.0000 C   0  0  0  0  0  0  0  0  0  0  0  0
   -1.3399   -2.9009    0.0000 C   0  0  0  0  0  0  0  0  0  0  0  0
   -1.0508   -1.4290    0.0000 C   0  0  0  0  0  0  0  0  0  0  0  0
    0.3684   -0.9434    0.0000 C   0  0  0  0  0  0  0  0  0  0  0  0
    0.6574    0.5285    0.0000 C   0  0  0  0  0  0  0  0  0  0  0  0
    2.0766    1.0141    0.0000 O   0  0  0  0  0  0  0  0  0  0  0  0
    2.3657    2.4860    0.0000 P   0  0  0  0  0  0  0  0  0  0  0  0
    0.8938    2.7750    0.0000 O   0  0  0  0  0  0  0  0  0  0  0  0
    2.6547    3.9579    0.0000 O   0  0  0  0  0  0  0  0  0  0  0  0
    3.8376    2.1969    0.0000 C   0  0  0  0  0  0  0  0  0  0  0  0
    4.3232    0.7777    0.0000 C   0  0  0  0  0  0  0  0  0  0  0  0
    5.7951    0.4887    0.0000 C   0  0  0  0  0  0  0  0  0  0  0  0
    6.2807   -0.9306    0.0000 C   0  0  0  0  0  0  0  0  0  0  0  0
    7.7526   -1.2196    0.0000 C   0  0  0  0  0  0  0  0  0  0  0  0
    8.2382   -2.6388    0.0000 C   0  0  0  0  0  0  0  0  0  0  0  0
    9.7101   -2.9279    0.0000 C   0  0  0  0  0  0  0  0  0  0  0  0
   10.6964   -1.7977    0.0000 C   0  0  0  0  0  0  0  0  0  0  0  0
   10.2107   -0.3785    0.0000 C   0  0  0  0  0  0  0  0  0  0  0  0
    8.7389   -0.0894    0.0000 C   0  0  0  0  0  0  0  0  0  0  0  0
   -0.4727    1.5147    0.0000 C   0  0  0  0  0  0  0  0  0  0  0  0
   -0.1837    2.9866    0.0000 O   0  0  0  0  0  0  0  0  0  0  0  0
   -1.8920    1.0291    0.0000 N   0  0  0  0  0  0  0  0  0  0  0  0
   -2.3333   -0.4045    0.0000 C   0  0  0  0  0  0  0  0  0  0  0  0
   -3.8331   -0.4278    0.0000 C   0  0  0  0  0  0  0  0  0  0  0  0
   -4.6958   -1.6548    0.0000 S   0  0  0  0  0  0  0  0  0  0  0  0
   -6.1899   -1.5212    0.0000 C   0  0  0  0  0  0  0  0  0  0  0  0
   -6.8212   -0.1605    0.0000 C   0  0  0  0  0  0  0  0  0  0  0  0
   -8.3152   -0.0269    0.0000 C   0  0  0  0  0  0  0  0  0  0  0  0
   -9.1779   -1.2540    0.0000 C   0  0  0  0  0  0  0  0  0  0  0  0
   -8.5466   -2.6147    0.0000 C   0  0  0  0  0  0  0  0  0  0  0  0
   -7.0526   -2.7483    0.0000 C   0  0  0  0  0  0  0  0  0  0  0  0
   -4.3187    0.9915    0.0000 C   0  0  0  0  0  0  0  0  0  0  0  0
   -3.1190    1.8919    0.0000 C   0  0  0  0  0  0  0  0  0  0  0  0
   -3.1423    3.3917    0.0000 C   0  0  0  0  0  0  0  0  0  0  0  0
   -1.8551    4.1618    0.0000 O   0  0  0  0  0  0  0  0  0  0  0  0
   -4.4528    4.1214    0.0000 O   0  0  0  0  0  0  0  0  0  0  0  0
  1  2  1  0
  2  3  1  0
  3  4  1  0
  4  5  1  0
  5  6  1  0
  6  7  1  0
  7  8  1  0
  8  9  2  0
  8 10  1  0
  8 11  1  0
 11 12  1  0
 12 13  1  0
 13 14  1  0
 14 15  1  0
 15 16  2  0
 16 17  1  0
 17 18  2  0
 18 19  1  0
 19 20  2  0
  6 21  1  0
 21 22  2  0
 21 23  1  0
 23 24  1  0
 24 25  1  0
 25 26  1  0
 26 27  1  0
 27 28  2  0
 28 29  1  0
 29 30  2  0
 30 31  1  0
 31 32  2  0
 25 33  1  0
 33 34  1  0
 34 35  1  0
 35 36  2  0
 35 37  1  0
 20 15  1  0
 34 23  1  0
 32 27  1  0
M  CHG  3   1   1  10  -1  37  -1
M  END
>  <pIC50_class>  (22) 
positive

$$$$

     RDKit          2D

 37 39  0  0  0  0  0  0  0  0999 V2000
   -3.0482   -4.8584    0.0000 N   0  0  0  0  0  0  0  0  0  0  0  0
   -2.7591   -3.3865    0.0000 C   0  0  0  0  0  0  0  0  0  0  0  0
   -1.3399   -2.9009    0.0000 C   0  0  0  0  0  0  0  0  0  0  0  0
   -1.0508   -1.4290    0.0000 C   0  0  0  0  0  0  0  0  0  0  0  0
    0.3684   -0.9434    0.0000 C   0  0  0  0  0  0  0  0  0  0  0  0
    0.6574    0.5285    0.0000 C   0  0  0  0  0  0  0  0  0  0  0  0
    2.0766    1.0141    0.0000 O   0  0  0  0  0  0  0  0  0  0  0  0
    2.3657    2.4860    0.0000 P   0  0  0  0  0  0  0  0  0  0  0  0
    0.8938    2.7750    0.0000 O   0  0  0  0  0  0  0  0  0  0  0  0
    2.6547    3.9579    0.0000 O   0  0  0  0  0  0  0  0  0  0  0  0
    3.8376    2.1969    0.0000 C   0  0  0  0  0  0  0  0  0  0  0  0
    4.3232    0.7777    0.0000 C   0  0  0  0  0  0  0  0  0  0  0  0
    5.7951    0.4887    0.0000 C   0  0  0  0  0  0  0  0  0  0  0  0
    6.2807   -0.9306    0.0000 C   0  0  0  0  0  0  0  0  0  0  0  0
    7.7526   -1.2196    0.0000 C   0  0  0  0  0  0  0  0  0  0  0  0
    8.2382   -2.6388    0.0000 C   0  0  0  0  0  0  0  0  0  0  0  0
    9.7101   -2.9279    0.0000 C   0  0  0  0  0  0  0  0  0  0  0  0
   10.6964   -1.7977    0.0000 C   0  0  0  0  0  0  0  0  0  0  0  0
   10.2107   -0.3785    0.0000 C   0  0  0  0  0  0  0  0  0  0  0  0
    8.7389   -0.0894    0.0000 C   0  0  0  0  0  0  0  0  0  0  0  0
   -0.4727    1.5147    0.0000 C   0  0  0  0  0  0  0  0  0  0  0  0
   -0.1837    2.9866    0.0000 O   0  0  0  0  0  0  0  0  0  0  0  0
   -1.8920    1.0291    0.0000 N   0  0  0  0  0  0  0  0  0  0  0  0
   -2.3333   -0.4045    0.0000 C   0  0  0  0  0  0  0  0  0  0  0  0
   -3.8331   -0.4278    0.0000 C   0  0  0  0  0  0  0  0  0  0  0  0
   -4.6958   -1.6548    0.0000 S   0  0  0  0  0  0  0  0  0  0  0  0
   -6.1899   -1.5212    0.0000 C   0  0  0  0  0  0  0  0  0  0  0  0
   -6.8212   -0.1605    0.0000 C   0  0  0  0  0  0  0  0  0  0  0  0
   -8.3152   -0.0269    0.0000 C   0  0  0  0  0  0  0  0  0  0  0  0
   -9.1779   -1.2540    0.0000 C   0  0  0  0  0  0  0  0  0  0  0  0
   -8.5466   -2.6147    0.0000 C   0  0  0  0  0  0  0  0  0  0  0  0
   -7.0526   -2.7483    0.0000 C   0  0  0  0  0  0  0  0  0  0  0  0
   -4.3187    0.9915    0.0000 C   0  0  0  0  0  0  0  0  0  0  0  0
   -3.1190    1.8919    0.0000 C   0  0  0  0  0  0  0  0  0  0  0  0
   -3.1423    3.3917    0.0000 C   0  0  0  0  0  0  0  0  0  0  0  0
   -1.8551    4.1618    0.0000 O   0  0  0  0  0  0  0  0  0  0  0  0
   -4.4528    4.1214    0.0000 O   0  0  0  0  0  0  0  0  0  0  0  0
  1  2  1  0
  2  3  1  0
  3  4  1  0
  4  5  1  0
  5  6  1  0
  6  7  1  0
  7  8  1  0
  8  9  2  0
  8 10  1  0
  8 11  1  0
 11 12  1  0
 12 13  1  0
 13 14  1  0
 14 15  1  0
 15 16  2  0
 16 17  1  0
 17 18  2  0
 18 19  1  0
 19 20  2  0
  6 21  1  0
 21 22  2  0
 21 23  1  0
 23 24  1  0
 24 25  1  0
 25 26  1  0
 26 27  1  0
 27 28  2  0
 28 29  1  0
 29 30  2  0
 30 31  1  0
 31 32  2  0
 25 33  1  0
 33 34  1  0
 34 35  1  0
 35 36  2  0
 35 37  1  0
 20 15  1  0
 34 23  1  0
 32 27  1  0
M  CHG  3   1   1  10  -1  37  -1
M  END
>  <pIC50_class>  (23) 
positive

$$$$

     RDKit          2D

 32 33  0  0  0  0  0  0  0  0999 V2000
   -0.2133    4.6923    0.0000 C   0  0  0  0  0  0  0  0  0  0  0  0
   -1.7125    4.6416    0.0000 S   0  0  0  0  0  0  0  0  0  0  0  0
   -2.4182    3.3180    0.0000 C   0  0  0  0  0  0  0  0  0  0  0  0
   -3.9038    3.1109    0.0000 C   0  0  0  0  0  0  0  0  0  0  0  0
   -4.1659    1.6340    0.0000 C   0  0  0  0  0  0  0  0  0  0  0  0
   -5.5149    0.9780    0.0000 C   0  0  0  0  0  0  0  0  0  0  0  0
   -5.6212   -0.5183    0.0000 O   0  0  0  0  0  0  0  0  0  0  0  0
   -6.7575    1.8182    0.0000 O   0  0  0  0  0  0  0  0  0  0  0  0
   -2.8423    0.9283    0.0000 N   0  0  0  0  0  0  0  0  0  0  0  0
   -2.6352   -0.5574    0.0000 C   0  0  0  0  0  0  0  0  0  0  0  0
   -3.8183   -1.4795    0.0000 O   0  0  0  0  0  0  0  0  0  0  0  0
   -1.2451   -1.1208    0.0000 C   0  0  0  0  0  0  0  0  0  0  0  0
   -1.0380   -2.6065    0.0000 C   0  0  0  0  0  0  0  0  0  0  0  0
   -2.2211   -3.5286    0.0000 C   0  0  0  0  0  0  0  0  0  0  0  0
   -2.0140   -5.0143    0.0000 C   0  0  0  0  0  0  0  0  0  0  0  0
   -3.1971   -5.9364    0.0000 C   0  0  0  0  0  0  0  0  0  0  0  0
   -2.9900   -7.4221    0.0000 N   0  0  0  0  0  0  0  0  0  0  0  0
   -0.0620   -0.1987    0.0000 O   0  0  0  0  0  0  0  0  0  0  0  0
   -0.2691    1.2870    0.0000 P   0  0  0  0  0  0  0  0  0  0  0  0
   -1.7548    1.0799    0.0000 O   0  0  0  0  0  0  0  0  0  0  0  0
   -0.4762    2.7726    0.0000 O   0  0  0  0  0  0  0  0  0  0  0  0
    1.2165    1.4940    0.0000 C   0  0  0  0  0  0  0  0  0  0  0  0
    2.1387    0.3110    0.0000 C   0  0  0  0  0  0  0  0  0  0  0  0
    3.6243    0.5181    0.0000 C   0  0  0  0  0  0  0  0  0  0  0  0
    4.5465   -0.6650    0.0000 C   0  0  0  0  0  0  0  0  0  0  0  0
    6.0321   -0.4579    0.0000 C   0  0  0  0  0  0  0  0  0  0  0  0
    6.9543   -1.6410    0.0000 C   0  0  0  0  0  0  0  0  0  0  0  0
    8.4399   -1.4339    0.0000 C   0  0  0  0  0  0  0  0  0  0  0  0
    9.0034   -0.0438    0.0000 C   0  0  0  0  0  0  0  0  0  0  0  0
    8.0812    1.1393    0.0000 C   0  0  0  0  0  0  0  0  0  0  0  0
    6.5956    0.9322    0.0000 C   0  0  0  0  0  0  0  0  0  0  0  0
   -1.7621    1.9690    0.0000 C   0  0  0  0  0  0  0  0  0  0  0  0
  1  2  1  0
  2  3  1  0
  3  4  1  0
  4  5  1  0
  5  6  1  0
  6  7  2  0
  6  8  1  0
  5  9  1  0
  9 10  1  0
 10 11  2  0
 10 12  1  0
 12 13  1  0
 13 14  1  0
 14 15  1  0
 15 16  1  0
 16 17  1  0
 12 18  1  0
 18 19  1  0
 19 20  2  0
 19 21  1  0
 19 22  1  0
 22 23  1  0
 23 24  1  0
 24 25  1  0
 25 26  1  0
 26 27  2  0
 27 28  1  0
 28 29  2  0
 29 30  1  0
 30 31  2  0
  9 32  1  0
 32  3  1  0
 31 26  1  0
M  CHG  3   8  -1  17   1  21  -1
M  END
>  <pIC50_class>  (24) 
positive

$$$$

     RDKit          2D

 32 33  0  0  0  0  0  0  0  0999 V2000
   -0.2133    4.6923    0.0000 C   0  0  0  0  0  0  0  0  0  0  0  0
   -1.7125    4.6416    0.0000 S   0  0  0  0  0  0  0  0  0  0  0  0
   -2.4182    3.3180    0.0000 C   0  0  0  0  0  0  0  0  0  0  0  0
   -3.9038    3.1109    0.0000 C   0  0  0  0  0  0  0  0  0  0  0  0
   -4.1659    1.6340    0.0000 C   0  0  0  0  0  0  0  0  0  0  0  0
   -5.5149    0.9780    0.0000 C   0  0  0  0  0  0  0  0  0  0  0  0
   -5.6212   -0.5183    0.0000 O   0  0  0  0  0  0  0  0  0  0  0  0
   -6.7575    1.8182    0.0000 O   0  0  0  0  0  0  0  0  0  0  0  0
   -2.8423    0.9283    0.0000 N   0  0  0  0  0  0  0  0  0  0  0  0
   -2.6352   -0.5574    0.0000 C   0  0  0  0  0  0  0  0  0  0  0  0
   -3.8183   -1.4795    0.0000 O   0  0  0  0  0  0  0  0  0  0  0  0
   -1.2451   -1.1208    0.0000 C   0  0  0  0  0  0  0  0  0  0  0  0
   -1.0380   -2.6065    0.0000 C   0  0  0  0  0  0  0  0  0  0  0  0
   -2.2211   -3.5286    0.0000 C   0  0  0  0  0  0  0  0  0  0  0  0
   -2.0140   -5.0143    0.0000 C   0  0  0  0  0  0  0  0  0  0  0  0
   -3.1971   -5.9364    0.0000 C   0  0  0  0  0  0  0  0  0  0  0  0
   -2.9900   -7.4221    0.0000 N   0  0  0  0  0  0  0  0  0  0  0  0
   -0.0620   -0.1987    0.0000 O   0  0  0  0  0  0  0  0  0  0  0  0
   -0.2691    1.2870    0.0000 P   0  0  0  0  0  0  0  0  0  0  0  0
   -1.7548    1.0799    0.0000 O   0  0  0  0  0  0  0  0  0  0  0  0
   -0.4762    2.7726    0.0000 O   0  0  0  0  0  0  0  0  0  0  0  0
    1.2165    1.4940    0.0000 C   0  0  0  0  0  0  0  0  0  0  0  0
    2.1387    0.3110    0.0000 C   0  0  0  0  0  0  0  0  0  0  0  0
    3.6243    0.5181    0.0000 C   0  0  0  0  0  0  0  0  0  0  0  0
    4.5465   -0.6650    0.0000 C   0  0  0  0  0  0  0  0  0  0  0  0
    6.0321   -0.4579    0.0000 C   0  0  0  0  0  0  0  0  0  0  0  0
    6.9543   -1.6410    0.0000 C   0  0  0  0  0  0  0  0  0  0  0  0
    8.4399   -1.4339    0.0000 C   0  0  0  0  0  0  0  0  0  0  0  0
    9.0034   -0.0438    0.0000 C   0  0  0  0  0  0  0  0  0  0  0  0
    8.0812    1.1393    0.0000 C   0  0  0  0  0  0  0  0  0  0  0  0
    6.5956    0.9322    0.0000 C   0  0  0  0  0  0  0  0  0  0  0  0
   -1.7621    1.9690    0.0000 C   0  0  0  0  0  0  0  0  0  0  0  0
  1  2  1  0
  2  3  1  0
  3  4  1  0
  4  5  1  0
  5  6  1  0
  6  7  2  0
  6  8  1  0
  5  9  1  0
  9 10  1  0
 10 11  2  0
 10 12  1  0
 12 13  1  0
 13 14  1  0
 14 15  1  0
 15 16  1  0
 16 17  1  0
 12 18  1  0
 18 19  1  0
 19 20  2  0
 19 21  1  0
 19 22  1  0
 22 23  1  0
 23 24  1  0
 24 25  1  0
 25 26  1  0
 26 27  2  0
 27 28  1  0
 28 29  2  0
 29 30  1  0
 30 31  2  0
  9 32  1  0
 32  3  1  0
 31 26  1  0
M  CHG  3   8  -1  17   1  21  -1
M  END
>  <pIC50_class>  (25) 
positive

$$$$

     RDKit          2D

 34 35  0  0  0  0  0  0  0  0999 V2000
   -3.8247   -2.0596    0.0000 C   0  0  0  0  0  0  0  0  0  0  0  0
   -2.4733   -2.7107    0.0000 S   0  0  0  0  0  0  0  0  0  0  0  0
   -1.2338   -1.8659    0.0000 C   0  0  0  0  0  0  0  0  0  0  0  0
   -2.2035   -0.7215    0.0000 S   0  0  0  0  0  0  0  0  0  0  0  0
   -1.6972    0.6905    0.0000 C   0  0  0  0  0  0  0  0  0  0  0  0
   -0.5233   -3.1870    0.0000 C   0  0  0  0  0  0  0  0  0  0  0  0
    0.9527   -2.9194    0.0000 C   0  0  0  0  0  0  0  0  0  0  0  0
    2.0367   -3.9563    0.0000 C   0  0  0  0  0  0  0  0  0  0  0  0
    3.4766   -3.5359    0.0000 O   0  0  0  0  0  0  0  0  0  0  0  0
    1.6807   -5.4134    0.0000 O   0  0  0  0  0  0  0  0  0  0  0  0
    1.1543   -1.4331    0.0000 N   0  0  0  0  0  0  0  0  0  0  0  0
    2.4754   -0.7225    0.0000 C   0  0  0  0  0  0  0  0  0  0  0  0
    3.7512   -1.5113    0.0000 O   0  0  0  0  0  0  0  0  0  0  0  0
    2.5206    0.7768    0.0000 C   0  0  0  0  0  0  0  0  0  0  0  0
    3.8416    1.4873    0.0000 C   0  0  0  0  0  0  0  0  0  0  0  0
    5.1174    0.6985    0.0000 C   0  0  0  0  0  0  0  0  0  0  0  0
    6.4385    1.4091    0.0000 C   0  0  0  0  0  0  0  0  0  0  0  0
    7.7143    0.6203    0.0000 C   0  0  0  0  0  0  0  0  0  0  0  0
    9.0354    1.3308    0.0000 N   0  0  0  0  0  0  0  0  0  0  0  0
    1.2447    1.5656    0.0000 O   0  0  0  0  0  0  0  0  0  0  0  0
    1.2899    3.0649    0.0000 P   0  0  0  0  0  0  0  0  0  0  0  0
    2.7892    3.0197    0.0000 O   0  0  0  0  0  0  0  0  0  0  0  0
    1.3351    4.5642    0.0000 O   0  0  0  0  0  0  0  0  0  0  0  0
   -0.2094    3.1101    0.0000 C   0  0  0  0  0  0  0  0  0  0  0  0
   -0.9982    1.8342    0.0000 C   0  0  0  0  0  0  0  0  0  0  0  0
   -2.4976    1.8794    0.0000 C   0  0  0  0  0  0  0  0  0  0  0  0
   -3.2863    0.6036    0.0000 C   0  0  0  0  0  0  0  0  0  0  0  0
   -4.7857    0.6487    0.0000 C   0  0  0  0  0  0  0  0  0  0  0  0
   -5.5744   -0.6271    0.0000 C   0  0  0  0  0  0  0  0  0  0  0  0
   -7.0738   -0.5819    0.0000 C   0  0  0  0  0  0  0  0  0  0  0  0
   -7.7843    0.7391    0.0000 C   0  0  0  0  0  0  0  0  0  0  0  0
   -6.9955    2.0150    0.0000 C   0  0  0  0  0  0  0  0  0  0  0  0
   -5.4962    1.9698    0.0000 C   0  0  0  0  0  0  0  0  0  0  0  0
   -0.1970   -0.7820    0.0000 C   0  0  0  0  0  0  0  0  0  0  0  0
  1  2  1  0
  2  3  1  0
  3  4  1  0
  4  5  1  0
  3  6  1  0
  6  7  1  0
  7  8  1  0
  8  9  2  0
  8 10  1  0
  7 11  1  0
 11 12  1  0
 12 13  2  0
 12 14  1  0
 14 15  1  0
 15 16  1  0
 16 17  1  0
 17 18  1  0
 18 19  1  0
 14 20  1  0
 20 21  1  0
 21 22  2  0
 21 23  1  0
 21 24  1  0
 24 25  1  0
 25 26  1  0
 26 27  1  0
 27 28  1  0
 28 29  2  0
 29 30  1  0
 30 31  2  0
 31 32  1  0
 32 33  2  0
 11 34  1  0
 34  3  1  0
 33 28  1  0
M  CHG  3  10  -1  19   1  23  -1
M  END
>  <pIC50_class>  (26) 
positive

$$$$

     RDKit          2D

 34 36  0  0  0  0  0  0  0  0999 V2000
    2.1515   -7.7589    0.0000 N   0  0  0  0  0  0  0  0  0  0  0  0
    1.6436   -6.3475    0.0000 C   0  0  0  0  0  0  0  0  0  0  0  0
    2.6119   -5.2019    0.0000 C   0  0  0  0  0  0  0  0  0  0  0  0
    2.1040   -3.7905    0.0000 C   0  0  0  0  0  0  0  0  0  0  0  0
    3.0723   -2.6450    0.0000 C   0  0  0  0  0  0  0  0  0  0  0  0
    2.5643   -1.2336    0.0000 C   0  0  0  0  0  0  0  0  0  0  0  0
    1.0881   -0.9678    0.0000 O   0  0  0  0  0  0  0  0  0  0  0  0
    0.1198   -2.1133    0.0000 P   0  0  0  0  0  0  0  0  0  0  0  0
    1.2653   -3.0817    0.0000 O   0  0  0  0  0  0  0  0  0  0  0  0
   -0.8486   -3.2589    0.0000 O   0  0  0  0  0  0  0  0  0  0  0  0
   -1.0258   -1.1450    0.0000 C   0  0  0  0  0  0  0  0  0  0  0  0
   -2.4372   -1.6529    0.0000 C   0  0  0  0  0  0  0  0  0  0  0  0
   -3.5828   -0.6846    0.0000 C   0  0  0  0  0  0  0  0  0  0  0  0
   -4.9942   -1.1925    0.0000 C   0  0  0  0  0  0  0  0  0  0  0  0
   -6.1397   -0.2242    0.0000 C   0  0  0  0  0  0  0  0  0  0  0  0
   -5.8739    1.2520    0.0000 C   0  0  0  0  0  0  0  0  0  0  0  0
   -7.0195    2.2204    0.0000 C   0  0  0  0  0  0  0  0  0  0  0  0
   -8.4309    1.7124    0.0000 C   0  0  0  0  0  0  0  0  0  0  0  0
   -8.6967    0.2362    0.0000 C   0  0  0  0  0  0  0  0  0  0  0  0
   -7.5511   -0.7321    0.0000 C   0  0  0  0  0  0  0  0  0  0  0  0
    3.5327   -0.0880    0.0000 C   0  0  0  0  0  0  0  0  0  0  0  0
    5.0089   -0.3538    0.0000 O   0  0  0  0  0  0  0  0  0  0  0  0
    3.0247    1.3234    0.0000 N   0  0  0  0  0  0  0  0  0  0  0  0
    1.5844    1.7420    0.0000 C   0  0  0  0  0  0  0  0  0  0  0  0
    1.5374    3.2413    0.0000 C   0  0  0  0  0  0  0  0  0  0  0  0
    2.9488    3.7492    0.0000 C   0  0  0  0  0  0  0  0  0  0  0  0
    3.8680    2.5639    0.0000 C   0  0  0  0  0  0  0  0  0  0  0  0
    5.3673    2.6108    0.0000 C   0  0  0  0  0  0  0  0  0  0  0  0
    6.0763    3.9327    0.0000 O   0  0  0  0  0  0  0  0  0  0  0  0
    6.1576    1.3359    0.0000 O   0  0  0  0  0  0  0  0  0  0  0  0
    0.1260    2.7334    0.0000 S   0  0  0  0  0  0  0  0  0  0  0  0
   -0.7932    3.9187    0.0000 C   0  0  0  0  0  0  0  0  0  0  0  0
    0.0501    5.1592    0.0000 C   0  0  0  0  0  0  0  0  0  0  0  0
    1.4905    4.7406    0.0000 S   0  0  0  0  0  0  0  0  0  0  0  0
  1  2  1  0
  2  3  1  0
  3  4  1  0
  4  5  1  0
  5  6  1  0
  6  7  1  0
  7  8  1  0
  8  9  2  0
  8 10  1  0
  8 11  1  0
 11 12  1  0
 12 13  1  0
 13 14  1  0
 14 15  1  0
 15 16  2  0
 16 17  1  0
 17 18  2  0
 18 19  1  0
 19 20  2  0
  6 21  1  0
 21 22  2  0
 21 23  1  0
 23 24  1  0
 24 25  1  0
 25 26  1  0
 26 27  1  0
 27 28  1  0
 28 29  2  0
 28 30  1  0
 25 31  1  0
 31 32  1  0
 32 33  1  0
 33 34  1  0
 20 15  1  0
 27 23  1  0
 34 25  1  0
M  CHG  3   1   1  10  -1  30  -1
M  END
>  <pIC50_class>  (27) 
positive

$$$$

     RDKit          2D

 31 32  0  0  0  0  0  0  0  0999 V2000
   -3.7785   -5.7077    0.0000 N   0  0  0  0  0  0  0  0  0  0  0  0
   -3.6969   -4.2100    0.0000 C   0  0  0  0  0  0  0  0  0  0  0  0
   -2.3590   -3.5318    0.0000 C   0  0  0  0  0  0  0  0  0  0  0  0
   -2.2774   -2.0340    0.0000 C   0  0  0  0  0  0  0  0  0  0  0  0
   -0.9395   -1.3558    0.0000 C   0  0  0  0  0  0  0  0  0  0  0  0
   -0.8579    0.1420    0.0000 C   0  0  0  0  0  0  0  0  0  0  0  0
    0.4801    0.8202    0.0000 O   0  0  0  0  0  0  0  0  0  0  0  0
    0.5617    2.3180    0.0000 P   0  0  0  0  0  0  0  0  0  0  0  0
   -0.9361    2.3996    0.0000 O   0  0  0  0  0  0  0  0  0  0  0  0
    0.6433    3.8158    0.0000 O   0  0  0  0  0  0  0  0  0  0  0  0
    2.0594    2.2364    0.0000 C   0  0  0  0  0  0  0  0  0  0  0  0
    2.7377    0.8985    0.0000 C   0  0  0  0  0  0  0  0  0  0  0  0
    4.2354    0.8169    0.0000 C   0  0  0  0  0  0  0  0  0  0  0  0
    4.9137   -0.5210    0.0000 C   0  0  0  0  0  0  0  0  0  0  0  0
    6.4114   -0.6026    0.0000 C   0  0  0  0  0  0  0  0  0  0  0  0
    7.0896   -1.9406    0.0000 C   0  0  0  0  0  0  0  0  0  0  0  0
    8.5874   -2.0222    0.0000 C   0  0  0  0  0  0  0  0  0  0  0  0
    9.4070   -0.7659    0.0000 C   0  0  0  0  0  0  0  0  0  0  0  0
    8.7288    0.5721    0.0000 C   0  0  0  0  0  0  0  0  0  0  0  0
    7.2310    0.6537    0.0000 C   0  0  0  0  0  0  0  0  0  0  0  0
   -2.1142    0.9616    0.0000 C   0  0  0  0  0  0  0  0  0  0  0  0
   -2.0326    2.4594    0.0000 O   0  0  0  0  0  0  0  0  0  0  0  0
   -3.4521    0.2834    0.0000 N   0  0  0  0  0  0  0  0  0  0  0  0
   -3.6898   -1.1977    0.0000 C   0  0  0  0  0  0  0  0  0  0  0  0
   -5.1718   -1.4293    0.0000 C   0  0  0  0  0  0  0  0  0  0  0  0
   -5.8556   -2.7644    0.0000 O   0  0  0  0  0  0  0  0  0  0  0  0
   -5.8500   -0.0913    0.0000 C   0  0  0  0  0  0  0  0  0  0  0  0
   -4.7872    0.9671    0.0000 C   0  0  0  0  0  0  0  0  0  0  0  0
   -5.0188    2.4491    0.0000 C   0  0  0  0  0  0  0  0  0  0  0  0
   -3.8511    3.3907    0.0000 O   0  0  0  0  0  0  0  0  0  0  0  0
   -6.4180    2.9896    0.0000 O   0  0  0  0  0  0  0  0  0  0  0  0
  1  2  1  0
  2  3  1  0
  3  4  1  0
  4  5  1  0
  5  6  1  0
  6  7  1  0
  7  8  1  0
  8  9  2  0
  8 10  1  0
  8 11  1  0
 11 12  1  0
 12 13  1  0
 13 14  1  0
 14 15  1  0
 15 16  2  0
 16 17  1  0
 17 18  2  0
 18 19  1  0
 19 20  2  0
  6 21  1  0
 21 22  2  0
 21 23  1  0
 23 24  1  0
 24 25  1  0
 25 26  1  0
 25 27  1  0
 27 28  1  0
 28 29  1  0
 29 30  2  0
 29 31  1  0
 20 15  1  0
 28 23  1  0
M  CHG  3   1   1  10  -1  31  -1
M  END
>  <pIC50_class>  (28) 
positive

$$$$

     RDKit          2D

 31 32  0  0  0  0  0  0  0  0999 V2000
   -3.7785   -5.7077    0.0000 N   0  0  0  0  0  0  0  0  0  0  0  0
   -3.6969   -4.2100    0.0000 C   0  0  0  0  0  0  0  0  0  0  0  0
   -2.3590   -3.5318    0.0000 C   0  0  0  0  0  0  0  0  0  0  0  0
   -2.2774   -2.0340    0.0000 C   0  0  0  0  0  0  0  0  0  0  0  0
   -0.9395   -1.3558    0.0000 C   0  0  0  0  0  0  0  0  0  0  0  0
   -0.8579    0.1420    0.0000 C   0  0  0  0  0  0  0  0  0  0  0  0
    0.4801    0.8202    0.0000 O   0  0  0  0  0  0  0  0  0  0  0  0
    0.5617    2.3180    0.0000 P   0  0  0  0  0  0  0  0  0  0  0  0
   -0.9361    2.3996    0.0000 O   0  0  0  0  0  0  0  0  0  0  0  0
    0.6433    3.8158    0.0000 O   0  0  0  0  0  0  0  0  0  0  0  0
    2.0594    2.2364    0.0000 C   0  0  0  0  0  0  0  0  0  0  0  0
    2.7377    0.8985    0.0000 C   0  0  0  0  0  0  0  0  0  0  0  0
    4.2354    0.8169    0.0000 C   0  0  0  0  0  0  0  0  0  0  0  0
    4.9137   -0.5210    0.0000 C   0  0  0  0  0  0  0  0  0  0  0  0
    6.4114   -0.6026    0.0000 C   0  0  0  0  0  0  0  0  0  0  0  0
    7.0896   -1.9406    0.0000 C   0  0  0  0  0  0  0  0  0  0  0  0
    8.5874   -2.0222    0.0000 C   0  0  0  0  0  0  0  0  0  0  0  0
    9.4070   -0.7659    0.0000 C   0  0  0  0  0  0  0  0  0  0  0  0
    8.7288    0.5721    0.0000 C   0  0  0  0  0  0  0  0  0  0  0  0
    7.2310    0.6537    0.0000 C   0  0  0  0  0  0  0  0  0  0  0  0
   -2.1142    0.9616    0.0000 C   0  0  0  0  0  0  0  0  0  0  0  0
   -2.0326    2.4594    0.0000 O   0  0  0  0  0  0  0  0  0  0  0  0
   -3.4521    0.2834    0.0000 N   0  0  0  0  0  0  0  0  0  0  0  0
   -3.6898   -1.1977    0.0000 C   0  0  0  0  0  0  0  0  0  0  0  0
   -5.1718   -1.4293    0.0000 C   0  0  0  0  0  0  0  0  0  0  0  0
   -5.8556   -2.7644    0.0000 O   0  0  0  0  0  0  0  0  0  0  0  0
   -5.8500   -0.0913    0.0000 C   0  0  0  0  0  0  0  0  0  0  0  0
   -4.7872    0.9671    0.0000 C   0  0  0  0  0  0  0  0  0  0  0  0
   -5.0188    2.4491    0.0000 C   0  0  0  0  0  0  0  0  0  0  0  0
   -3.8511    3.3907    0.0000 O   0  0  0  0  0  0  0  0  0  0  0  0
   -6.4180    2.9896    0.0000 O   0  0  0  0  0  0  0  0  0  0  0  0
  1  2  1  0
  2  3  1  0
  3  4  1  0
  4  5  1  0
  5  6  1  0
  6  7  1  0
  7  8  1  0
  8  9  2  0
  8 10  1  0
  8 11  1  0
 11 12  1  0
 12 13  1  0
 13 14  1  0
 14 15  1  0
 15 16  2  0
 16 17  1  0
 17 18  2  0
 18 19  1  0
 19 20  2  0
  6 21  1  0
 21 22  2  0
 21 23  1  0
 23 24  1  0
 24 25  1  0
 25 26  1  0
 25 27  1  0
 27 28  1  0
 28 29  1  0
 29 30  2  0
 29 31  1  0
 20 15  1  0
 28 23  1  0
M  CHG  3   1   1  10  -1  31  -1
M  END
>  <pIC50_class>  (29) 
negative

$$$$

     RDKit          2D

 12 11  0  0  0  0  0  0  0  0999 V2000
   -1.2189    1.5659    0.0000 O   0  0  0  0  0  0  0  0  0  0  0  0
   -1.2973    0.0679    0.0000 C   0  0  0  0  0  0  0  0  0  0  0  0
   -2.6337   -0.6132    0.0000 C   0  0  0  0  0  0  0  0  0  0  0  0
   -3.8918    0.2037    0.0000 C   0  0  0  0  0  0  0  0  0  0  0  0
   -5.2283   -0.4774    0.0000 S   0  0  0  0  0  0  0  0  0  0  0  0
   -0.0392   -0.7490    0.0000 N   0  0  0  0  0  0  0  0  0  0  0  0
    1.2973   -0.0679    0.0000 C   0  0  0  0  0  0  0  0  0  0  0  0
    1.3757    1.4300    0.0000 C   0  0  0  0  0  0  0  0  0  0  0  0
    2.7121    2.1111    0.0000 S   0  0  0  0  0  0  0  0  0  0  0  0
    2.5553   -0.8848    0.0000 C   0  0  0  0  0  0  0  0  0  0  0  0
    2.4769   -2.3827    0.0000 O   0  0  0  0  0  0  0  0  0  0  0  0
    3.8918   -0.2037    0.0000 O   0  0  0  0  0  0  0  0  0  0  0  0
  1  2  2  0
  2  3  1  0
  3  4  1  0
  4  5  1  0
  2  6  1  0
  6  7  1  0
  7  8  1  0
  8  9  1  0
  7 10  1  0
 10 11  2  0
 10 12  1  0
M  CHG  1  12  -1
M  END
>  <pIC50_class>  (30) 
negative

$$$$

     RDKit          2D

 15 15  0  0  0  0  0  0  0  0999 V2000
   -3.1158   -0.1378    0.0000 O   0  0  0  0  0  0  0  0  0  0  0  0
   -2.0427    0.9103    0.0000 C   0  0  0  0  0  0  0  0  0  0  0  0
   -2.4138    2.3637    0.0000 C   0  0  0  0  0  0  0  0  0  0  0  0
   -3.8580    2.7690    0.0000 S   0  0  0  0  0  0  0  0  0  0  0  0
   -0.5985    0.5050    0.0000 N   0  0  0  0  0  0  0  0  0  0  0  0
   -0.2274   -0.9484    0.0000 C   0  0  0  0  0  0  0  0  0  0  0  0
    1.2168   -1.3537    0.0000 C   0  0  0  0  0  0  0  0  0  0  0  0
    2.2899   -0.3057    0.0000 C   0  0  0  0  0  0  0  0  0  0  0  0
    3.7686   -0.5578    0.0000 C   0  0  0  0  0  0  0  0  0  0  0  0
    4.4653    0.7706    0.0000 N   0  0  0  0  0  0  0  0  0  0  0  0
    3.4173    1.8437    0.0000 C   0  0  0  0  0  0  0  0  0  0  0  0
    2.0728    1.1785    0.0000 N   0  0  0  0  0  0  0  0  0  0  0  0
   -1.3005   -1.9965    0.0000 C   0  0  0  0  0  0  0  0  0  0  0  0
   -0.9294   -3.4498    0.0000 O   0  0  0  0  0  0  0  0  0  0  0  0
   -2.7447   -1.5911    0.0000 O   0  0  0  0  0  0  0  0  0  0  0  0
  1  2  2  0
  2  3  1  0
  3  4  1  0
  2  5  1  0
  5  6  1  0
  6  7  1  0
  7  8  1  0
  8  9  2  0
  9 10  1  0
 10 11  2  0
 11 12  1  0
  6 13  1  0
 13 14  2  0
 13 15  1  0
 12  8  1  0
M  CHG  1  15  -1
M  END
>  <pIC50_class>  (31) 
negative

$$$$

     RDKit          2D

 16 16  0  0  0  0  0  0  0  0999 V2000
   -2.6612   -1.1002    0.0000 O   0  0  0  0  0  0  0  0  0  0  0  0
   -1.8834    0.1824    0.0000 C   0  0  0  0  0  0  0  0  0  0  0  0
   -2.6052    1.4973    0.0000 C   0  0  0  0  0  0  0  0  0  0  0  0
   -4.1049    1.5296    0.0000 C   0  0  0  0  0  0  0  0  0  0  0  0
   -4.8267    2.8445    0.0000 S   0  0  0  0  0  0  0  0  0  0  0  0
   -0.3837    0.1501    0.0000 N   0  0  0  0  0  0  0  0  0  0  0  0
    0.3381   -1.1648    0.0000 C   0  0  0  0  0  0  0  0  0  0  0  0
    1.8378   -1.1971    0.0000 C   0  0  0  0  0  0  0  0  0  0  0  0
    2.6156    0.0855    0.0000 C   0  0  0  0  0  0  0  0  0  0  0  0
    4.1104    0.2101    0.0000 C   0  0  0  0  0  0  0  0  0  0  0  0
    4.4538    1.6703    0.0000 N   0  0  0  0  0  0  0  0  0  0  0  0
    3.1712    2.4481    0.0000 C   0  0  0  0  0  0  0  0  0  0  0  0
    2.0351    1.4686    0.0000 N   0  0  0  0  0  0  0  0  0  0  0  0
   -0.4397   -2.4474    0.0000 C   0  0  0  0  0  0  0  0  0  0  0  0
    0.2822   -3.7622    0.0000 O   0  0  0  0  0  0  0  0  0  0  0  0
   -1.9393   -2.4150    0.0000 O   0  0  0  0  0  0  0  0  0  0  0  0
  1  2  2  0
  2  3  1  0
  3  4  1  0
  4  5  1  0
  2  6  1  0
  6  7  1  0
  7  8  1  0
  8  9  1  0
  9 10  2  0
 10 11  1  0
 11 12  2  0
 12 13  1  0
  7 14  1  0
 14 15  2  0
 14 16  1  0
 13  9  1  0
M  CHG  1  16  -1
M  END
>  <pIC50_class>  (32) 
negative

$$$$

     RDKit          2D

 19 20  0  0  0  0  0  0  0  0999 V2000
   -4.3346    0.3136    0.0000 O   0  0  0  0  0  0  0  0  0  0  0  0
   -3.3478   -0.8161    0.0000 C   0  0  0  0  0  0  0  0  0  0  0  0
   -3.8327   -2.2355    0.0000 C   0  0  0  0  0  0  0  0  0  0  0  0
   -5.3045   -2.5253    0.0000 S   0  0  0  0  0  0  0  0  0  0  0  0
   -1.8760   -0.5263    0.0000 N   0  0  0  0  0  0  0  0  0  0  0  0
   -1.3911    0.8931    0.0000 C   0  0  0  0  0  0  0  0  0  0  0  0
    0.0807    1.1829    0.0000 C   0  0  0  0  0  0  0  0  0  0  0  0
    1.0675    0.0532    0.0000 C   0  0  0  0  0  0  0  0  0  0  0  0
    0.7336   -1.4092    0.0000 C   0  0  0  0  0  0  0  0  0  0  0  0
    2.0212   -2.1786    0.0000 N   0  0  0  0  0  0  0  0  0  0  0  0
    3.1509   -1.1918    0.0000 C   0  0  0  0  0  0  0  0  0  0  0  0
    4.6401   -1.3710    0.0000 C   0  0  0  0  0  0  0  0  0  0  0  0
    5.5400   -0.1709    0.0000 C   0  0  0  0  0  0  0  0  0  0  0  0
    4.9505    1.2084    0.0000 C   0  0  0  0  0  0  0  0  0  0  0  0
    3.4613    1.3877    0.0000 C   0  0  0  0  0  0  0  0  0  0  0  0
    2.5614    0.1875    0.0000 C   0  0  0  0  0  0  0  0  0  0  0  0
   -2.3779    2.0228    0.0000 C   0  0  0  0  0  0  0  0  0  0  0  0
   -1.8930    3.4423    0.0000 O   0  0  0  0  0  0  0  0  0  0  0  0
   -3.8496    1.7331    0.0000 O   0  0  0  0  0  0  0  0  0  0  0  0
  1  2  2  0
  2  3  1  0
  3  4  1  0
  2  5  1  0
  5  6  1  0
  6  7  1  0
  7  8  1  0
  8  9  2  0
  9 10  1  0
 10 11  1  0
 11 12  2  0
 12 13  1  0
 13 14  2  0
 14 15  1  0
 15 16  2  0
  6 17  1  0
 17 18  2  0
 17 19  1  0
 16  8  1  0
 16 11  1  0
M  CHG  1  19  -1
M  END
>  <pIC50_class>  (33) 
negative

$$$$

     RDKit          2D

 16 15  0  0  0  0  0  0  0  0999 V2000
    4.2470    0.5531    0.0000 C   0  0  0  0  0  0  0  0  0  0  0  0
    3.4839   -0.7383    0.0000 C   0  0  0  0  0  0  0  0  0  0  0  0
    2.7208   -2.0297    0.0000 C   0  0  0  0  0  0  0  0  0  0  0  0
    4.7753   -1.5014    0.0000 S   0  0  0  0  0  0  0  0  0  0  0  0
    2.1925    0.0248    0.0000 C   0  0  0  0  0  0  0  0  0  0  0  0
    2.2076    1.5247    0.0000 O   0  0  0  0  0  0  0  0  0  0  0  0
    0.8860   -0.7121    0.0000 N   0  0  0  0  0  0  0  0  0  0  0  0
   -0.4055    0.0510    0.0000 C   0  0  0  0  0  0  0  0  0  0  0  0
   -1.7120   -0.6859    0.0000 C   0  0  0  0  0  0  0  0  0  0  0  0
   -3.0034    0.0772    0.0000 C   0  0  0  0  0  0  0  0  0  0  0  0
   -4.3099   -0.6597    0.0000 C   0  0  0  0  0  0  0  0  0  0  0  0
   -4.3251   -2.1596    0.0000 O   0  0  0  0  0  0  0  0  0  0  0  0
   -5.6013    0.1034    0.0000 O   0  0  0  0  0  0  0  0  0  0  0  0
   -0.3903    1.5509    0.0000 C   0  0  0  0  0  0  0  0  0  0  0  0
    0.9162    2.2878    0.0000 O   0  0  0  0  0  0  0  0  0  0  0  0
   -1.6817    2.3140    0.0000 O   0  0  0  0  0  0  0  0  0  0  0  0
  1  2  1  0
  2  3  1  0
  2  4  1  0
  2  5  1  0
  5  6  2  0
  5  7  1  0
  7  8  1  0
  8  9  1  0
  9 10  1  0
 10 11  1  0
 11 12  2  0
 11 13  1  0
  8 14  1  0
 14 15  2  0
 14 16  1  0
M  CHG  2  13  -1  16  -1
M  END
>  <pIC50_class>  (34) 
negative

$$$$

     RDKit          2D

 20 21  0  0  0  0  0  0  0  0999 V2000
   -5.2850   -2.0669    0.0000 C   0  0  0  0  0  0  0  0  0  0  0  0
   -3.7994   -1.8593    0.0000 C   0  0  0  0  0  0  0  0  0  0  0  0
   -2.8768   -3.0420    0.0000 S   0  0  0  0  0  0  0  0  0  0  0  0
   -3.2365   -0.4689    0.0000 C   0  0  0  0  0  0  0  0  0  0  0  0
   -4.1591    0.7138    0.0000 O   0  0  0  0  0  0  0  0  0  0  0  0
   -1.7509   -0.2613    0.0000 N   0  0  0  0  0  0  0  0  0  0  0  0
   -1.1880    1.1291    0.0000 C   0  0  0  0  0  0  0  0  0  0  0  0
    0.2976    1.3367    0.0000 C   0  0  0  0  0  0  0  0  0  0  0  0
    1.2202    0.1540    0.0000 C   0  0  0  0  0  0  0  0  0  0  0  0
    0.8057   -1.2876    0.0000 C   0  0  0  0  0  0  0  0  0  0  0  0
    2.0486   -2.1273    0.0000 N   0  0  0  0  0  0  0  0  0  0  0  0
    3.2313   -1.2047    0.0000 C   0  0  0  0  0  0  0  0  0  0  0  0
    4.7083   -1.4663    0.0000 C   0  0  0  0  0  0  0  0  0  0  0  0
    5.6734   -0.3180    0.0000 C   0  0  0  0  0  0  0  0  0  0  0  0
    5.1614    1.0920    0.0000 C   0  0  0  0  0  0  0  0  0  0  0  0
    3.6844    1.3535    0.0000 C   0  0  0  0  0  0  0  0  0  0  0  0
    2.7193    0.2052    0.0000 C   0  0  0  0  0  0  0  0  0  0  0  0
   -2.1106    2.3118    0.0000 C   0  0  0  0  0  0  0  0  0  0  0  0
   -1.5476    3.7021    0.0000 O   0  0  0  0  0  0  0  0  0  0  0  0
   -3.5961    2.1041    0.0000 O   0  0  0  0  0  0  0  0  0  0  0  0
  1  2  1  0
  2  3  1  0
  2  4  1  0
  4  5  2  0
  4  6  1  0
  6  7  1  0
  7  8  1  0
  8  9  1  0
  9 10  2  0
 10 11  1  0
 11 12  1  0
 12 13  2  0
 13 14  1  0
 14 15  2  0
 15 16  1  0
 16 17  2  0
  7 18  1  0
 18 19  2  0
 18 20  1  0
 17  9  1  0
 17 12  1  0
M  CHG  1  20  -1
M  END
>  <pIC50_class>  (35) 
negative

$$$$

     RDKit          2D

 20 21  0  0  0  0  0  0  0  0999 V2000
   -5.2850   -2.0669    0.0000 C   0  0  0  0  0  0  0  0  0  0  0  0
   -3.7994   -1.8593    0.0000 C   0  0  0  0  0  0  0  0  0  0  0  0
   -2.8768   -3.0420    0.0000 S   0  0  0  0  0  0  0  0  0  0  0  0
   -3.2365   -0.4689    0.0000 C   0  0  0  0  0  0  0  0  0  0  0  0
   -4.1591    0.7138    0.0000 O   0  0  0  0  0  0  0  0  0  0  0  0
   -1.7509   -0.2613    0.0000 N   0  0  0  0  0  0  0  0  0  0  0  0
   -1.1880    1.1291    0.0000 C   0  0  0  0  0  0  0  0  0  0  0  0
    0.2976    1.3367    0.0000 C   0  0  0  0  0  0  0  0  0  0  0  0
    1.2202    0.1540    0.0000 C   0  0  0  0  0  0  0  0  0  0  0  0
    0.8057   -1.2876    0.0000 C   0  0  0  0  0  0  0  0  0  0  0  0
    2.0486   -2.1273    0.0000 N   0  0  0  0  0  0  0  0  0  0  0  0
    3.2313   -1.2047    0.0000 C   0  0  0  0  0  0  0  0  0  0  0  0
    4.7083   -1.4663    0.0000 C   0  0  0  0  0  0  0  0  0  0  0  0
    5.6734   -0.3180    0.0000 C   0  0  0  0  0  0  0  0  0  0  0  0
    5.1614    1.0920    0.0000 C   0  0  0  0  0  0  0  0  0  0  0  0
    3.6844    1.3535    0.0000 C   0  0  0  0  0  0  0  0  0  0  0  0
    2.7193    0.2052    0.0000 C   0  0  0  0  0  0  0  0  0  0  0  0
   -2.1106    2.3118    0.0000 C   0  0  0  0  0  0  0  0  0  0  0  0
   -1.5476    3.7021    0.0000 O   0  0  0  0  0  0  0  0  0  0  0  0
   -3.5961    2.1041    0.0000 O   0  0  0  0  0  0  0  0  0  0  0  0
  1  2  1  0
  2  3  1  0
  2  4  1  0
  4  5  2  0
  4  6  1  0
  6  7  1  0
  7  8  1  0
  8  9  1  0
  9 10  2  0
 10 11  1  0
 11 12  1  0
 12 13  2  0
 13 14  1  0
 14 15  2  0
 15 16  1  0
 16 17  2  0
  7 18  1  0
 18 19  2  0
 18 20  1  0
 17  9  1  0
 17 12  1  0
M  CHG  1  20  -1
M  END
>  <pIC50_class>  (36) 
negative

$$$$

     RDKit          2D

 21 22  0  0  0  0  0  0  0  0999 V2000
   -2.3162   -2.2463    0.0000 C   0  0  0  0  0  0  0  0  0  0  0  0
   -3.6839   -1.6304    0.0000 C   0  0  0  0  0  0  0  0  0  0  0  0
   -5.0516   -1.0144    0.0000 C   0  0  0  0  0  0  0  0  0  0  0  0
   -4.2999   -2.9981    0.0000 S   0  0  0  0  0  0  0  0  0  0  0  0
   -3.0679   -0.2627    0.0000 C   0  0  0  0  0  0  0  0  0  0  0  0
   -3.9444    0.9546    0.0000 O   0  0  0  0  0  0  0  0  0  0  0  0
   -1.5755   -0.1123    0.0000 N   0  0  0  0  0  0  0  0  0  0  0  0
   -0.9595    1.2554    0.0000 C   0  0  0  0  0  0  0  0  0  0  0  0
    0.5329    1.4058    0.0000 C   0  0  0  0  0  0  0  0  0  0  0  0
    1.4094    0.1885    0.0000 C   0  0  0  0  0  0  0  0  0  0  0  0
    0.9398   -1.2361    0.0000 C   0  0  0  0  0  0  0  0  0  0  0  0
    2.1495   -2.1230    0.0000 N   0  0  0  0  0  0  0  0  0  0  0  0
    3.3668   -1.2465    0.0000 C   0  0  0  0  0  0  0  0  0  0  0  0
    4.8327   -1.5647    0.0000 C   0  0  0  0  0  0  0  0  0  0  0  0
    5.8411   -0.4543    0.0000 C   0  0  0  0  0  0  0  0  0  0  0  0
    5.3837    0.9743    0.0000 C   0  0  0  0  0  0  0  0  0  0  0  0
    3.9179    1.2925    0.0000 C   0  0  0  0  0  0  0  0  0  0  0  0
    2.9094    0.1821    0.0000 C   0  0  0  0  0  0  0  0  0  0  0  0
   -1.8360    2.4727    0.0000 C   0  0  0  0  0  0  0  0  0  0  0  0
   -1.2200    3.8404    0.0000 O   0  0  0  0  0  0  0  0  0  0  0  0
   -3.3284    2.3223    0.0000 O   0  0  0  0  0  0  0  0  0  0  0  0
  1  2  1  0
  2  3  1  0
  2  4  1  0
  2  5  1  0
  5  6  2  0
  5  7  1  0
  7  8  1  0
  8  9  1  0
  9 10  1  0
 10 11  2  0
 11 12  1  0
 12 13  1  0
 13 14  2  0
 14 15  1  0
 15 16  2  0
 16 17  1  0
 17 18  2  0
  8 19  1  0
 19 20  2  0
 19 21  1  0
 18 10  1  0
 18 13  1  0
M  CHG  1  21  -1
M  END
>  <pIC50_class>  (37) 
negative

$$$$

     RDKit          2D

 20 21  0  0  0  0  0  0  0  0999 V2000
   -3.9586    0.9764    0.0000 O   0  0  0  0  0  0  0  0  0  0  0  0
   -3.1094   -0.2600    0.0000 C   0  0  0  0  0  0  0  0  0  0  0  0
   -3.7557   -1.6137    0.0000 C   0  0  0  0  0  0  0  0  0  0  0  0
   -5.2511   -1.7308    0.0000 C   0  0  0  0  0  0  0  0  0  0  0  0
   -5.8973   -3.0845    0.0000 S   0  0  0  0  0  0  0  0  0  0  0  0
   -1.6140   -0.1429    0.0000 N   0  0  0  0  0  0  0  0  0  0  0  0
   -0.9678    1.2108    0.0000 C   0  0  0  0  0  0  0  0  0  0  0  0
    0.5277    1.3279    0.0000 C   0  0  0  0  0  0  0  0  0  0  0  0
    1.3768    0.0914    0.0000 C   0  0  0  0  0  0  0  0  0  0  0  0
    0.8756   -1.3224    0.0000 C   0  0  0  0  0  0  0  0  0  0  0  0
    2.0653   -2.2359    0.0000 N   0  0  0  0  0  0  0  0  0  0  0  0
    3.3018   -1.3868    0.0000 C   0  0  0  0  0  0  0  0  0  0  0  0
    4.7602   -1.7375    0.0000 C   0  0  0  0  0  0  0  0  0  0  0  0
    5.7932   -0.6498    0.0000 C   0  0  0  0  0  0  0  0  0  0  0  0
    5.3677    0.7886    0.0000 C   0  0  0  0  0  0  0  0  0  0  0  0
    3.9092    1.1393    0.0000 C   0  0  0  0  0  0  0  0  0  0  0  0
    2.8763    0.0516    0.0000 C   0  0  0  0  0  0  0  0  0  0  0  0
   -1.8169    2.4472    0.0000 C   0  0  0  0  0  0  0  0  0  0  0  0
   -1.1707    3.8009    0.0000 O   0  0  0  0  0  0  0  0  0  0  0  0
   -3.3123    2.3301    0.0000 O   0  0  0  0  0  0  0  0  0  0  0  0
  1  2  2  0
  2  3  1  0
  3  4  1  0
  4  5  1  0
  2  6  1  0
  6  7  1  0
  7  8  1  0
  8  9  1  0
  9 10  2  0
 10 11  1  0
 11 12  1  0
 12 13  2  0
 13 14  1  0
 14 15  2  0
 15 16  1  0
 16 17  2  0
  7 18  1  0
 18 19  2  0
 18 20  1  0
 17  9  1  0
 17 12  1  0
M  CHG  1  20  -1
M  END
>  <pIC50_class>  (38) 
negative

$$$$

     RDKit          2D

 20 21  0  0  0  0  0  0  0  0999 V2000
   -3.9586    0.9764    0.0000 O   0  0  0  0  0  0  0  0  0  0  0  0
   -3.1094   -0.2600    0.0000 C   0  0  0  0  0  0  0  0  0  0  0  0
   -3.7557   -1.6137    0.0000 C   0  0  0  0  0  0  0  0  0  0  0  0
   -5.2511   -1.7308    0.0000 C   0  0  0  0  0  0  0  0  0  0  0  0
   -5.8973   -3.0845    0.0000 S   0  0  0  0  0  0  0  0  0  0  0  0
   -1.6140   -0.1429    0.0000 N   0  0  0  0  0  0  0  0  0  0  0  0
   -0.9678    1.2108    0.0000 C   0  0  0  0  0  0  0  0  0  0  0  0
    0.5277    1.3279    0.0000 C   0  0  0  0  0  0  0  0  0  0  0  0
    1.3768    0.0914    0.0000 C   0  0  0  0  0  0  0  0  0  0  0  0
    0.8756   -1.3224    0.0000 C   0  0  0  0  0  0  0  0  0  0  0  0
    2.0653   -2.2359    0.0000 N   0  0  0  0  0  0  0  0  0  0  0  0
    3.3018   -1.3868    0.0000 C   0  0  0  0  0  0  0  0  0  0  0  0
    4.7602   -1.7375    0.0000 C   0  0  0  0  0  0  0  0  0  0  0  0
    5.7932   -0.6498    0.0000 C   0  0  0  0  0  0  0  0  0  0  0  0
    5.3677    0.7886    0.0000 C   0  0  0  0  0  0  0  0  0  0  0  0
    3.9092    1.1393    0.0000 C   0  0  0  0  0  0  0  0  0  0  0  0
    2.8763    0.0516    0.0000 C   0  0  0  0  0  0  0  0  0  0  0  0
   -1.8169    2.4472    0.0000 C   0  0  0  0  0  0  0  0  0  0  0  0
   -1.1707    3.8009    0.0000 O   0  0  0  0  0  0  0  0  0  0  0  0
   -3.3123    2.3301    0.0000 O   0  0  0  0  0  0  0  0  0  0  0  0
  1  2  2  0
  2  3  1  0
  3  4  1  0
  4  5  1  0
  2  6  1  0
  6  7  1  0
  7  8  1  0
  8  9  1  0
  9 10  2  0
 10 11  1  0
 11 12  1  0
 12 13  2  0
 13 14  1  0
 14 15  2  0
 15 16  1  0
 16 17  2  0
  7 18  1  0
 18 19  2  0
 18 20  1  0
 17  9  1  0
 17 12  1  0
M  CHG  1  20  -1
M  END
>  <pIC50_class>  (39) 
negative

$$$$

     RDKit          2D

 21 22  0  0  0  0  0  0  0  0999 V2000
   -5.2695   -1.3797    0.0000 C   0  0  0  0  0  0  0  0  0  0  0  0
   -3.7711   -1.3088    0.0000 C   0  0  0  0  0  0  0  0  0  0  0  0
   -2.9606   -2.5709    0.0000 C   0  0  0  0  0  0  0  0  0  0  0  0
   -3.6483   -3.9040    0.0000 S   0  0  0  0  0  0  0  0  0  0  0  0
   -3.0834    0.0242    0.0000 C   0  0  0  0  0  0  0  0  0  0  0  0
   -3.8940    1.2864    0.0000 O   0  0  0  0  0  0  0  0  0  0  0  0
   -1.5851    0.0951    0.0000 N   0  0  0  0  0  0  0  0  0  0  0  0
   -0.8973    1.4282    0.0000 C   0  0  0  0  0  0  0  0  0  0  0  0
    0.6010    1.4991    0.0000 C   0  0  0  0  0  0  0  0  0  0  0  0
    1.4116    0.2369    0.0000 C   0  0  0  0  0  0  0  0  0  0  0  0
    0.8669   -1.1607    0.0000 C   0  0  0  0  0  0  0  0  0  0  0  0
    2.0278   -2.1106    0.0000 N   0  0  0  0  0  0  0  0  0  0  0  0
    3.2900   -1.3000    0.0000 C   0  0  0  0  0  0  0  0  0  0  0  0
    4.7369   -1.6956    0.0000 C   0  0  0  0  0  0  0  0  0  0  0  0
    5.8029   -0.6403    0.0000 C   0  0  0  0  0  0  0  0  0  0  0  0
    5.4220    0.8105    0.0000 C   0  0  0  0  0  0  0  0  0  0  0  0
    3.9751    1.2061    0.0000 C   0  0  0  0  0  0  0  0  0  0  0  0
    2.9091    0.1508    0.0000 C   0  0  0  0  0  0  0  0  0  0  0  0
   -1.7079    2.6903    0.0000 C   0  0  0  0  0  0  0  0  0  0  0  0
   -1.0201    4.0234    0.0000 O   0  0  0  0  0  0  0  0  0  0  0  0
   -3.2062    2.6194    0.0000 O   0  0  0  0  0  0  0  0  0  0  0  0
  1  2  1  0
  2  3  1  0
  3  4  1  0
  2  5  1  0
  5  6  2  0
  5  7  1  0
  7  8  1  0
  8  9  1  0
  9 10  1  0
 10 11  2  0
 11 12  1  0
 12 13  1  0
 13 14  2  0
 14 15  1  0
 15 16  2  0
 16 17  1  0
 17 18  2  0
  8 19  1  0
 19 20  2  0
 19 21  1  0
 18 10  1  0
 18 13  1  0
M  CHG  1  21  -1
M  END
>  <pIC50_class>  (40) 
negative

$$$$

     RDKit          2D

 21 22  0  0  0  0  0  0  0  0999 V2000
   -5.2695   -1.3797    0.0000 C   0  0  0  0  0  0  0  0  0  0  0  0
   -3.7711   -1.3088    0.0000 C   0  0  0  0  0  0  0  0  0  0  0  0
   -2.9606   -2.5709    0.0000 C   0  0  0  0  0  0  0  0  0  0  0  0
   -3.6483   -3.9040    0.0000 S   0  0  0  0  0  0  0  0  0  0  0  0
   -3.0834    0.0242    0.0000 C   0  0  0  0  0  0  0  0  0  0  0  0
   -3.8940    1.2864    0.0000 O   0  0  0  0  0  0  0  0  0  0  0  0
   -1.5851    0.0951    0.0000 N   0  0  0  0  0  0  0  0  0  0  0  0
   -0.8973    1.4282    0.0000 C   0  0  0  0  0  0  0  0  0  0  0  0
    0.6010    1.4991    0.0000 C   0  0  0  0  0  0  0  0  0  0  0  0
    1.4116    0.2369    0.0000 C   0  0  0  0  0  0  0  0  0  0  0  0
    0.8669   -1.1607    0.0000 C   0  0  0  0  0  0  0  0  0  0  0  0
    2.0278   -2.1106    0.0000 N   0  0  0  0  0  0  0  0  0  0  0  0
    3.2900   -1.3000    0.0000 C   0  0  0  0  0  0  0  0  0  0  0  0
    4.7369   -1.6956    0.0000 C   0  0  0  0  0  0  0  0  0  0  0  0
    5.8029   -0.6403    0.0000 C   0  0  0  0  0  0  0  0  0  0  0  0
    5.4220    0.8105    0.0000 C   0  0  0  0  0  0  0  0  0  0  0  0
    3.9751    1.2061    0.0000 C   0  0  0  0  0  0  0  0  0  0  0  0
    2.9091    0.1508    0.0000 C   0  0  0  0  0  0  0  0  0  0  0  0
   -1.7079    2.6903    0.0000 C   0  0  0  0  0  0  0  0  0  0  0  0
   -1.0201    4.0234    0.0000 O   0  0  0  0  0  0  0  0  0  0  0  0
   -3.2062    2.6194    0.0000 O   0  0  0  0  0  0  0  0  0  0  0  0
  1  2  1  0
  2  3  1  0
  3  4  1  0
  2  5  1  0
  5  6  2  0
  5  7  1  0
  7  8  1  0
  8  9  1  0
  9 10  1  0
 10 11  2  0
 11 12  1  0
 12 13  1  0
 13 14  2  0
 14 15  1  0
 15 16  2  0
 16 17  1  0
 17 18  2  0
  8 19  1  0
 19 20  2  0
 19 21  1  0
 18 10  1  0
 18 13  1  0
M  CHG  1  21  -1
M  END
>  <pIC50_class>  (41) 
negative

$$$$

     RDKit          2D

 16 15  0  0  0  0  0  0  0  0999 V2000
    4.2470    0.5531    0.0000 C   0  0  0  0  0  0  0  0  0  0  0  0
    3.4839   -0.7383    0.0000 C   0  0  0  0  0  0  0  0  0  0  0  0
    2.7208   -2.0297    0.0000 C   0  0  0  0  0  0  0  0  0  0  0  0
    4.7753   -1.5014    0.0000 S   0  0  0  0  0  0  0  0  0  0  0  0
    2.1925    0.0248    0.0000 C   0  0  0  0  0  0  0  0  0  0  0  0
    2.2076    1.5247    0.0000 O   0  0  0  0  0  0  0  0  0  0  0  0
    0.8860   -0.7121    0.0000 N   0  0  0  0  0  0  0  0  0  0  0  0
   -0.4055    0.0510    0.0000 C   0  0  0  0  0  0  0  0  0  0  0  0
   -1.7120   -0.6859    0.0000 C   0  0  0  0  0  0  0  0  0  0  0  0
   -3.0034    0.0772    0.0000 C   0  0  0  0  0  0  0  0  0  0  0  0
   -4.3099   -0.6597    0.0000 C   0  0  0  0  0  0  0  0  0  0  0  0
   -4.3251   -2.1596    0.0000 O   0  0  0  0  0  0  0  0  0  0  0  0
   -5.6013    0.1034    0.0000 O   0  0  0  0  0  0  0  0  0  0  0  0
   -0.3903    1.5509    0.0000 C   0  0  0  0  0  0  0  0  0  0  0  0
    0.9162    2.2878    0.0000 O   0  0  0  0  0  0  0  0  0  0  0  0
   -1.6817    2.3140    0.0000 O   0  0  0  0  0  0  0  0  0  0  0  0
  1  2  1  0
  2  3  1  0
  2  4  1  0
  2  5  1  0
  5  6  2  0
  5  7  1  0
  7  8  1  0
  8  9  1  0
  9 10  1  0
 10 11  1  0
 11 12  2  0
 11 13  1  0
  8 14  1  0
 14 15  2  0
 14 16  1  0
M  CHG  2  13  -1  16  -1
M  END
>  <pIC50_class>  (42) 
negative

$$$$

     RDKit          2D

 11 10  0  0  0  0  0  0  0  0999 V2000
    1.7825   -1.4180    0.0000 O   0  0  0  0  0  0  0  0  0  0  0  0
    1.7708    0.0820    0.0000 C   0  0  0  0  0  0  0  0  0  0  0  0
    3.0640    0.8421    0.0000 C   0  0  0  0  0  0  0  0  0  0  0  0
    4.3688    0.1023    0.0000 S   0  0  0  0  0  0  0  0  0  0  0  0
    0.4660    0.8218    0.0000 N   0  0  0  0  0  0  0  0  0  0  0  0
   -0.8272    0.0617    0.0000 C   0  0  0  0  0  0  0  0  0  0  0  0
   -0.8155   -1.4382    0.0000 C   0  0  0  0  0  0  0  0  0  0  0  0
   -2.1086   -2.1983    0.0000 S   0  0  0  0  0  0  0  0  0  0  0  0
   -2.1320    0.8016    0.0000 C   0  0  0  0  0  0  0  0  0  0  0  0
   -2.1437    2.3015    0.0000 O   0  0  0  0  0  0  0  0  0  0  0  0
   -3.4252    0.0415    0.0000 O   0  0  0  0  0  0  0  0  0  0  0  0
  1  2  2  0
  2  3  1  0
  3  4  1  0
  2  5  1  0
  5  6  1  0
  6  7  1  0
  7  8  1  0
  6  9  1  0
  9 10  2  0
  9 11  1  0
M  CHG  1  11  -1
M  END
>  <pIC50_class>  (43) 
negative

$$$$

     RDKit          2D

 12 11  0  0  0  0  0  0  0  0999 V2000
    4.0672    0.6290    0.0000 C   0  0  0  0  0  0  0  0  0  0  0  0
    2.8700   -0.2748    0.0000 C   0  0  0  0  0  0  0  0  0  0  0  0
    3.0541   -1.7634    0.0000 S   0  0  0  0  0  0  0  0  0  0  0  0
    1.4887    0.3101    0.0000 C   0  0  0  0  0  0  0  0  0  0  0  0
    1.3046    1.7987    0.0000 O   0  0  0  0  0  0  0  0  0  0  0  0
    0.2916   -0.5937    0.0000 N   0  0  0  0  0  0  0  0  0  0  0  0
   -1.0897   -0.0088    0.0000 C   0  0  0  0  0  0  0  0  0  0  0  0
   -1.2738    1.4798    0.0000 C   0  0  0  0  0  0  0  0  0  0  0  0
   -2.6551    2.0647    0.0000 S   0  0  0  0  0  0  0  0  0  0  0  0
   -2.2868   -0.9126    0.0000 C   0  0  0  0  0  0  0  0  0  0  0  0
   -2.1027   -2.4013    0.0000 O   0  0  0  0  0  0  0  0  0  0  0  0
   -3.6681   -0.3277    0.0000 O   0  0  0  0  0  0  0  0  0  0  0  0
  1  2  1  0
  2  3  1  0
  2  4  1  0
  4  5  2  0
  4  6  1  0
  6  7  1  0
  7  8  1  0
  8  9  1  0
  7 10  1  0
 10 11  2  0
 10 12  1  0
M  CHG  1  12  -1
M  END
>  <pIC50_class>  (44) 
negative

$$$$

     RDKit          2D

 12 11  0  0  0  0  0  0  0  0999 V2000
    4.0672    0.6290    0.0000 C   0  0  0  0  0  0  0  0  0  0  0  0
    2.8700   -0.2748    0.0000 C   0  0  0  0  0  0  0  0  0  0  0  0
    3.0541   -1.7634    0.0000 S   0  0  0  0  0  0  0  0  0  0  0  0
    1.4887    0.3101    0.0000 C   0  0  0  0  0  0  0  0  0  0  0  0
    1.3046    1.7987    0.0000 O   0  0  0  0  0  0  0  0  0  0  0  0
    0.2916   -0.5937    0.0000 N   0  0  0  0  0  0  0  0  0  0  0  0
   -1.0897   -0.0088    0.0000 C   0  0  0  0  0  0  0  0  0  0  0  0
   -1.2738    1.4798    0.0000 C   0  0  0  0  0  0  0  0  0  0  0  0
   -2.6551    2.0647    0.0000 S   0  0  0  0  0  0  0  0  0  0  0  0
   -2.2868   -0.9126    0.0000 C   0  0  0  0  0  0  0  0  0  0  0  0
   -2.1027   -2.4013    0.0000 O   0  0  0  0  0  0  0  0  0  0  0  0
   -3.6681   -0.3277    0.0000 O   0  0  0  0  0  0  0  0  0  0  0  0
  1  2  1  0
  2  3  1  0
  2  4  1  0
  4  5  2  0
  4  6  1  0
  6  7  1  0
  7  8  1  0
  8  9  1  0
  7 10  1  0
 10 11  2  0
 10 12  1  0
M  CHG  1  12  -1
M  END
>  <pIC50_class>  (45) 
negative

$$$$

     RDKit          2D

 13 12  0  0  0  0  0  0  0  0999 V2000
    3.2198    1.1680    0.0000 C   0  0  0  0  0  0  0  0  0  0  0  0
    2.6522   -0.2205    0.0000 C   0  0  0  0  0  0  0  0  0  0  0  0
    2.0847   -1.6090    0.0000 C   0  0  0  0  0  0  0  0  0  0  0  0
    4.0407   -0.7880    0.0000 S   0  0  0  0  0  0  0  0  0  0  0  0
    1.2637    0.3471    0.0000 C   0  0  0  0  0  0  0  0  0  0  0  0
    1.0610    1.8333    0.0000 O   0  0  0  0  0  0  0  0  0  0  0  0
    0.0780   -0.5716    0.0000 N   0  0  0  0  0  0  0  0  0  0  0  0
   -1.3105   -0.0041    0.0000 C   0  0  0  0  0  0  0  0  0  0  0  0
   -1.5132    1.4822    0.0000 C   0  0  0  0  0  0  0  0  0  0  0  0
   -2.9017    2.0497    0.0000 S   0  0  0  0  0  0  0  0  0  0  0  0
   -2.4963   -0.9228    0.0000 C   0  0  0  0  0  0  0  0  0  0  0  0
   -2.2935   -2.4090    0.0000 O   0  0  0  0  0  0  0  0  0  0  0  0
   -3.8847   -0.3552    0.0000 O   0  0  0  0  0  0  0  0  0  0  0  0
  1  2  1  0
  2  3  1  0
  2  4  1  0
  2  5  1  0
  5  6  2  0
  5  7  1  0
  7  8  1  0
  8  9  1  0
  9 10  1  0
  8 11  1  0
 11 12  2  0
 11 13  1  0
M  CHG  1  13  -1
M  END
>  <pIC50_class>  (46) 
negative

$$$$

     RDKit          2D

 16 17  0  0  0  0  0  0  0  0999 V2000
   -1.5442   -2.6104    0.0000 O   0  0  0  0  0  0  0  0  0  0  0  0
   -2.4267   -1.3975    0.0000 C   0  0  0  0  0  0  0  0  0  0  0  0
   -3.9184   -1.5553    0.0000 O   0  0  0  0  0  0  0  0  0  0  0  0
   -1.8176   -0.0267    0.0000 C   0  0  0  0  0  0  0  0  0  0  0  0
   -2.7001    1.1862    0.0000 C   0  0  0  0  0  0  0  0  0  0  0  0
   -2.0909    2.5569    0.0000 C   0  0  0  0  0  0  0  0  0  0  0  0
   -0.5992    2.7147    0.0000 C   0  0  0  0  0  0  0  0  0  0  0  0
    0.2833    1.5018    0.0000 N   0  0  0  0  0  0  0  0  0  0  0  0
    1.7752    1.3461    0.0000 C   0  0  0  0  0  0  0  0  0  0  0  0
    2.7781    2.4615    0.0000 O   0  0  0  0  0  0  0  0  0  0  0  0
    2.0880   -0.1210    0.0000 N   0  0  0  0  0  0  0  0  0  0  0  0
    3.4588   -0.7301    0.0000 C   0  0  0  0  0  0  0  0  0  0  0  0
    3.6166   -2.2218    0.0000 S   0  0  0  0  0  0  0  0  0  0  0  0
    0.7895   -0.8718    0.0000 C   0  0  0  0  0  0  0  0  0  0  0  0
    0.6337   -2.3637    0.0000 O   0  0  0  0  0  0  0  0  0  0  0  0
   -0.3259    0.1311    0.0000 N   0  0  0  0  0  0  0  0  0  0  0  0
  1  2  2  0
  2  3  1  0
  2  4  1  0
  4  5  1  0
  5  6  2  0
  6  7  1  0
  7  8  1  0
  8  9  1  0
  9 10  2  0
  9 11  1  0
 11 12  1  0
 12 13  1  0
 11 14  1  0
 14 15  2  0
 14 16  1  0
 16  4  1  0
 16  8  1  0
M  CHG  1   3  -1
M  END
>  <pIC50_class>  (47) 
negative

$$$$

     RDKit          2D

 17 18  0  0  0  0  0  0  0  0999 V2000
   -0.9887   -2.7188    0.0000 O   0  0  0  0  0  0  0  0  0  0  0  0
   -2.0965   -1.7074    0.0000 C   0  0  0  0  0  0  0  0  0  0  0  0
   -3.5262   -2.1611    0.0000 O   0  0  0  0  0  0  0  0  0  0  0  0
   -1.7745   -0.2424    0.0000 C   0  0  0  0  0  0  0  0  0  0  0  0
   -2.8823    0.7690    0.0000 C   0  0  0  0  0  0  0  0  0  0  0  0
   -2.5603    2.2340    0.0000 C   0  0  0  0  0  0  0  0  0  0  0  0
   -1.1305    2.6877    0.0000 C   0  0  0  0  0  0  0  0  0  0  0  0
   -0.0228    1.6763    0.0000 N   0  0  0  0  0  0  0  0  0  0  0  0
    1.4070    2.1300    0.0000 C   0  0  0  0  0  0  0  0  0  0  0  0
    1.7290    3.5950    0.0000 O   0  0  0  0  0  0  0  0  0  0  0  0
    2.5148    1.1186    0.0000 C   0  0  0  0  0  0  0  0  0  0  0  0
    2.1928   -0.3464    0.0000 C   0  0  0  0  0  0  0  0  0  0  0  0
    3.3005   -1.3578    0.0000 C   0  0  0  0  0  0  0  0  0  0  0  0
    2.9785   -2.8228    0.0000 S   0  0  0  0  0  0  0  0  0  0  0  0
    0.7630   -0.8001    0.0000 C   0  0  0  0  0  0  0  0  0  0  0  0
    0.4410   -2.2651    0.0000 O   0  0  0  0  0  0  0  0  0  0  0  0
   -0.3448    0.2113    0.0000 N   0  0  0  0  0  0  0  0  0  0  0  0
  1  2  2  0
  2  3  1  0
  2  4  1  0
  4  5  1  0
  5  6  1  0
  6  7  1  0
  7  8  1  0
  8  9  1  0
  9 10  2  0
  9 11  1  0
 11 12  1  0
 12 13  1  0
 13 14  1  0
 12 15  1  0
 15 16  2  0
 15 17  1  0
 17  4  1  0
 17  8  1  0
M  CHG  1   3  -1
M  END
>  <pIC50_class>  (48) 
negative

$$$$

     RDKit          2D

 18 19  0  0  0  0  0  0  0  0999 V2000
   -2.9430   -1.6694    0.0000 C   0  0  0  0  0  0  0  0  0  0  0  0
   -1.7457   -0.7657    0.0000 C   0  0  0  0  0  0  0  0  0  0  0  0
   -2.7696    0.3305    0.0000 C   0  0  0  0  0  0  0  0  0  0  0  0
   -2.3322    1.7653    0.0000 C   0  0  0  0  0  0  0  0  0  0  0  0
   -3.3560    2.8616    0.0000 S   0  0  0  0  0  0  0  0  0  0  0  0
   -0.9722   -2.0509    0.0000 C   0  0  0  0  0  0  0  0  0  0  0  0
   -1.5572   -3.4321    0.0000 O   0  0  0  0  0  0  0  0  0  0  0  0
    0.4891   -1.7123    0.0000 N   0  0  0  0  0  0  0  0  0  0  0  0
    1.7185   -2.5717    0.0000 C   0  0  0  0  0  0  0  0  0  0  0  0
    3.0775   -1.9367    0.0000 C   0  0  0  0  0  0  0  0  0  0  0  0
    3.2070   -0.4423    0.0000 C   0  0  0  0  0  0  0  0  0  0  0  0
    1.9776    0.4171    0.0000 C   0  0  0  0  0  0  0  0  0  0  0  0
    2.1072    1.9115    0.0000 C   0  0  0  0  0  0  0  0  0  0  0  0
    0.8778    2.7709    0.0000 O   0  0  0  0  0  0  0  0  0  0  0  0
    3.4662    2.5465    0.0000 O   0  0  0  0  0  0  0  0  0  0  0  0
    0.6187   -0.2179    0.0000 N   0  0  0  0  0  0  0  0  0  0  0  0
   -0.7625    0.3671    0.0000 C   0  0  0  0  0  0  0  0  0  0  0  0
   -1.1011    1.8284    0.0000 O   0  0  0  0  0  0  0  0  0  0  0  0
  1  2  1  0
  2  3  1  0
  3  4  1  0
  4  5  1  0
  2  6  1  0
  6  7  2  0
  6  8  1  0
  8  9  1  0
  9 10  1  0
 10 11  1  0
 11 12  1  0
 12 13  1  0
 13 14  2  0
 13 15  1  0
 12 16  1  0
 16 17  1  0
 17 18  2  0
 17  2  1  0
 16  8  1  0
M  CHG  1  15  -1
M  END
>  <pIC50_class>  (49) 
negative

$$$$

     RDKit          2D

 18 19  0  0  0  0  0  0  0  0999 V2000
    0.3894   -3.9401    0.0000 C   0  0  0  0  0  0  0  0  0  0  0  0
    0.5293   -2.4467    0.0000 C   0  0  0  0  0  0  0  0  0  0  0  0
    1.8927   -1.8212    0.0000 C   0  0  0  0  0  0  0  0  0  0  0  0
    3.1161   -2.6891    0.0000 S   0  0  0  0  0  0  0  0  0  0  0  0
   -0.6941   -1.5788    0.0000 C   0  0  0  0  0  0  0  0  0  0  0  0
   -2.0574   -2.2043    0.0000 O   0  0  0  0  0  0  0  0  0  0  0  0
   -0.5541   -0.0853    0.0000 N   0  0  0  0  0  0  0  0  0  0  0  0
    0.7364    0.6793    0.0000 C   0  0  0  0  0  0  0  0  0  0  0  0
    2.1681    0.2319    0.0000 C   0  0  0  0  0  0  0  0  0  0  0  0
    3.2714    1.2481    0.0000 C   0  0  0  0  0  0  0  0  0  0  0  0
    2.9430    2.7117    0.0000 C   0  0  0  0  0  0  0  0  0  0  0  0
    1.5113    3.1591    0.0000 C   0  0  0  0  0  0  0  0  0  0  0  0
    0.4080    2.1429    0.0000 C   0  0  0  0  0  0  0  0  0  0  0  0
   -1.0855    2.2829    0.0000 C   0  0  0  0  0  0  0  0  0  0  0  0
   -1.6801    0.9058    0.0000 C   0  0  0  0  0  0  0  0  0  0  0  0
   -3.1437    0.5773    0.0000 C   0  0  0  0  0  0  0  0  0  0  0  0
   -3.5911   -0.8544    0.0000 O   0  0  0  0  0  0  0  0  0  0  0  0
   -4.1599    1.6807    0.0000 O   0  0  0  0  0  0  0  0  0  0  0  0
  1  2  1  0
  2  3  1  0
  3  4  1  0
  2  5  1  0
  5  6  2  0
  5  7  1  0
  7  8  1  0
  8  9  2  0
  9 10  1  0
 10 11  2  0
 11 12  1  0
 12 13  2  0
 13 14  1  0
 14 15  1  0
 15 16  1  0
 16 17  2  0
 16 18  1  0
 15  7  1  0
 13  8  1  0
M  CHG  1  18  -1
M  END
>  <pIC50_class>  (50) 
positive

$$$$

     RDKit          2D

 20 21  0  0  0  0  0  0  0  0999 V2000
   -3.8208   -2.8672    0.0000 O   0  0  0  0  0  0  0  0  0  0  0  0
   -3.0425   -1.5849    0.0000 C   0  0  0  0  0  0  0  0  0  0  0  0
   -3.7638   -0.2697    0.0000 O   0  0  0  0  0  0  0  0  0  0  0  0
   -1.5428   -1.6178    0.0000 C   0  0  0  0  0  0  0  0  0  0  0  0
   -0.6880   -2.8504    0.0000 C   0  0  0  0  0  0  0  0  0  0  0  0
    0.7484   -2.4183    0.0000 S   0  0  0  0  0  0  0  0  0  0  0  0
    0.7813   -0.9187    0.0000 C   0  0  0  0  0  0  0  0  0  0  0  0
    2.0139   -0.0638    0.0000 C   0  0  0  0  0  0  0  0  0  0  0  0
    1.8899    1.4310    0.0000 C   0  0  0  0  0  0  0  0  0  0  0  0
    3.1225    2.2859    0.0000 C   0  0  0  0  0  0  0  0  0  0  0  0
    4.4791    1.6459    0.0000 C   0  0  0  0  0  0  0  0  0  0  0  0
    4.6031    0.1510    0.0000 C   0  0  0  0  0  0  0  0  0  0  0  0
    3.3705   -0.7038    0.0000 C   0  0  0  0  0  0  0  0  0  0  0  0
    3.4945   -2.1987    0.0000 O   0  0  0  0  0  0  0  0  0  0  0  0
   -0.6347   -0.4239    0.0000 N   0  0  0  0  0  0  0  0  0  0  0  0
   -1.0668    1.0125    0.0000 C   0  0  0  0  0  0  0  0  0  0  0  0
   -0.0389    2.1049    0.0000 O   0  0  0  0  0  0  0  0  0  0  0  0
   -2.5269    1.3565    0.0000 C   0  0  0  0  0  0  0  0  0  0  0  0
   -2.9590    2.7929    0.0000 C   0  0  0  0  0  0  0  0  0  0  0  0
   -4.4190    3.1369    0.0000 S   0  0  0  0  0  0  0  0  0  0  0  0
  1  2  2  0
  2  3  1  0
  2  4  1  0
  4  5  1  0
  5  6  1  0
  6  7  1  0
  7  8  1  0
  8  9  2  0
  9 10  1  0
 10 11  2  0
 11 12  1  0
 12 13  2  0
 13 14  1  0
  7 15  1  0
 15 16  1  0
 16 17  2  0
 16 18  1  0
 18 19  1  0
 19 20  1  0
 15  4  1  0
 13  8  1  0
M  CHG  1   3  -1
M  END
>  <pIC50_class>  (51) 
positive

$$$$

     RDKit          2D

 19 20  0  0  0  0  0  0  0  0999 V2000
    5.4519    0.6790    0.0000 O   0  0  0  0  0  0  0  0  0  0  0  0
    4.5801   -0.5416    0.0000 C   0  0  0  0  0  0  0  0  0  0  0  0
    5.2013   -1.9069    0.0000 O   0  0  0  0  0  0  0  0  0  0  0  0
    3.0871   -0.3969    0.0000 C   0  0  0  0  0  0  0  0  0  0  0  0
    2.4659    0.9685    0.0000 C   0  0  0  0  0  0  0  0  0  0  0  0
    0.9729    1.1132    0.0000 C   0  0  0  0  0  0  0  0  0  0  0  0
    0.3518    2.4785    0.0000 C   0  0  0  0  0  0  0  0  0  0  0  0
   -1.1412    2.6233    0.0000 C   0  0  0  0  0  0  0  0  0  0  0  0
   -1.7624    3.9886    0.0000 O   0  0  0  0  0  0  0  0  0  0  0  0
   -2.0131    1.4026    0.0000 C   0  0  0  0  0  0  0  0  0  0  0  0
   -1.3919    0.0373    0.0000 N   0  0  0  0  0  0  0  0  0  0  0  0
    0.1011   -0.1074    0.0000 C   0  0  0  0  0  0  0  0  0  0  0  0
    0.7222   -1.4728    0.0000 O   0  0  0  0  0  0  0  0  0  0  0  0
   -2.4985   -0.9754    0.0000 C   0  0  0  0  0  0  0  0  0  0  0  0
   -2.3296   -2.4658    0.0000 C   0  0  0  0  0  0  0  0  0  0  0  0
   -0.9544   -3.0648    0.0000 O   0  0  0  0  0  0  0  0  0  0  0  0
   -3.5360   -3.3573    0.0000 O   0  0  0  0  0  0  0  0  0  0  0  0
   -3.8035   -0.2359    0.0000 C   0  0  0  0  0  0  0  0  0  0  0  0
   -3.5036    1.2338    0.0000 C   0  0  0  0  0  0  0  0  0  0  0  0
  1  2  2  0
  2  3  1  0
  2  4  1  0
  4  5  1  0
  5  6  1  0
  6  7  2  0
  7  8  1  0
  8  9  1  0
  8 10  2  0
 10 11  1  0
 11 12  1  0
 12 13  2  0
 11 14  1  0
 14 15  1  0
 15 16  2  0
 15 17  1  0
 14 18  1  0
 18 19  1  0
 12  6  1  0
 19 10  1  0
M  CHG  2   3  -1  17  -1
M  END
>  <pIC50_class>  (52) 
negative

$$$$

     RDKit          2D

 17 17  0  0  0  0  0  0  0  0999 V2000
    1.9933   -2.2455    0.0000 C   0  0  0  0  0  0  0  0  0  0  0  0
    1.2534   -0.9407    0.0000 C   0  0  0  0  0  0  0  0  0  0  0  0
    2.0134    0.3525    0.0000 N   0  0  0  0  0  0  0  0  0  0  0  0
    3.5133    0.3409    0.0000 P   0  0  0  0  0  0  0  0  0  0  0  0
    5.0133    0.3293    0.0000 O   0  0  0  0  0  0  0  0  0  0  0  0
    3.5249    1.8409    0.0000 O   0  0  0  0  0  0  0  0  0  0  0  0
    3.5017   -1.1590    0.0000 O   0  0  0  0  0  0  0  0  0  0  0  0
   -0.2466   -0.9291    0.0000 C   0  0  0  0  0  0  0  0  0  0  0  0
   -1.0066   -2.2223    0.0000 O   0  0  0  0  0  0  0  0  0  0  0  0
   -0.9865    0.3757    0.0000 N   0  0  0  0  0  0  0  0  0  0  0  0
   -0.3658    1.7413    0.0000 C   0  0  0  0  0  0  0  0  0  0  0  0
   -1.4728    2.7536    0.0000 C   0  0  0  0  0  0  0  0  0  0  0  0
   -2.7776    2.0137    0.0000 C   0  0  0  0  0  0  0  0  0  0  0  0
   -2.4771    0.5441    0.0000 C   0  0  0  0  0  0  0  0  0  0  0  0
   -3.4893   -0.5629    0.0000 C   0  0  0  0  0  0  0  0  0  0  0  0
   -3.0369   -1.9930    0.0000 O   0  0  0  0  0  0  0  0  0  0  0  0
   -4.9541   -0.2396    0.0000 O   0  0  0  0  0  0  0  0  0  0  0  0
  1  2  1  0
  2  3  1  0
  3  4  1  0
  4  5  2  0
  4  6  1  0
  4  7  1  0
  2  8  1  0
  8  9  2  0
  8 10  1  0
 10 11  1  0
 11 12  1  0
 12 13  1  0
 13 14  1  0
 14 15  1  0
 15 16  2  0
 15 17  1  0
 14 10  1  0
M  CHG  3   6  -1   7  -1  17  -1
M  END
>  <pIC50_class>  (53) 
negative

$$$$

     RDKit          2D

 19 20  0  0  0  0  0  0  0  0999 V2000
   -5.1631   -1.8491    0.0000 O   0  0  0  0  0  0  0  0  0  0  0  0
   -4.9705   -0.3615    0.0000 C   0  0  0  0  0  0  0  0  0  0  0  0
   -6.1625    0.5491    0.0000 O   0  0  0  0  0  0  0  0  0  0  0  0
   -3.5859    0.2154    0.0000 C   0  0  0  0  0  0  0  0  0  0  0  0
   -2.3939   -0.6952    0.0000 C   0  0  0  0  0  0  0  0  0  0  0  0
   -1.0093   -0.1182    0.0000 N   0  0  0  0  0  0  0  0  0  0  0  0
   -0.6623    1.3411    0.0000 C   0  0  0  0  0  0  0  0  0  0  0  0
   -1.6389    2.4796    0.0000 O   0  0  0  0  0  0  0  0  0  0  0  0
    0.8329    1.4620    0.0000 N   0  0  0  0  0  0  0  0  0  0  0  0
    1.4098    0.0774    0.0000 N   0  0  0  0  0  0  0  0  0  0  0  0
    0.2713   -0.8992    0.0000 C   0  0  0  0  0  0  0  0  0  0  0  0
    0.3922   -2.3943    0.0000 O   0  0  0  0  0  0  0  0  0  0  0  0
    2.8974   -0.1152    0.0000 C   0  0  0  0  0  0  0  0  0  0  0  0
    3.4744   -1.4998    0.0000 C   0  0  0  0  0  0  0  0  0  0  0  0
    2.5638   -2.6918    0.0000 O   0  0  0  0  0  0  0  0  0  0  0  0
    4.9620   -1.6924    0.0000 O   0  0  0  0  0  0  0  0  0  0  0  0
    3.8080    1.0768    0.0000 C   0  0  0  0  0  0  0  0  0  0  0  0
    3.2310    2.4614    0.0000 C   0  0  0  0  0  0  0  0  0  0  0  0
    1.7435    2.6540    0.0000 C   0  0  0  0  0  0  0  0  0  0  0  0
  1  2  2  0
  2  3  1  0
  2  4  1  0
  4  5  1  0
  5  6  1  0
  6  7  1  0
  7  8  2  0
  7  9  1  0
  9 10  1  0
 10 11  1  0
 11 12  2  0
 10 13  1  0
 13 14  1  0
 14 15  2  0
 14 16  1  0
 13 17  1  0
 17 18  2  0
 18 19  1  0
 11  6  1  0
 19  9  1  0
M  CHG  2   3  -1  16  -1
M  END
>  <pIC50_class>  (54) 
positive

$$$$

     RDKit          2D

 14 14  0  0  0  0  0  0  0  0999 V2000
    3.0742   -1.8476    0.0000 C   0  0  0  0  0  0  0  0  0  0  0  0
    2.1958   -0.6317    0.0000 C   0  0  0  0  0  0  0  0  0  0  0  0
    2.8096    0.7369    0.0000 C   0  0  0  0  0  0  0  0  0  0  0  0
    4.3018    0.8897    0.0000 S   0  0  0  0  0  0  0  0  0  0  0  0
    0.7036   -0.7845    0.0000 C   0  0  0  0  0  0  0  0  0  0  0  0
    0.0898   -2.1532    0.0000 O   0  0  0  0  0  0  0  0  0  0  0  0
   -0.1748    0.4314    0.0000 N   0  0  0  0  0  0  0  0  0  0  0  0
    0.2925    1.8567    0.0000 C   0  0  0  0  0  0  0  0  0  0  0  0
   -0.9186    2.7417    0.0000 C   0  0  0  0  0  0  0  0  0  0  0  0
   -2.1345    1.8633    0.0000 C   0  0  0  0  0  0  0  0  0  0  0  0
   -1.6748    0.4355    0.0000 C   0  0  0  0  0  0  0  0  0  0  0  0
   -2.5598   -0.7757    0.0000 C   0  0  0  0  0  0  0  0  0  0  0  0
   -1.9534   -2.1477    0.0000 O   0  0  0  0  0  0  0  0  0  0  0  0
   -4.0511   -0.6149    0.0000 O   0  0  0  0  0  0  0  0  0  0  0  0
  1  2  1  0
  2  3  1  0
  3  4  1  0
  2  5  1  0
  5  6  2  0
  5  7  1  0
  7  8  1  0
  8  9  1  0
  9 10  1  0
 10 11  1  0
 11 12  1  0
 12 13  2  0
 12 14  1  0
 11  7  1  0
M  CHG  1  14  -1
M  END
>  <pIC50_class>  (55) 
negative

$$$$

     RDKit          2D

 15 15  0  0  0  0  0  0  0  0999 V2000
    2.7783   -2.2467    0.0000 C   0  0  0  0  0  0  0  0  0  0  0  0
    2.0066   -0.9604    0.0000 C   0  0  0  0  0  0  0  0  0  0  0  0
    2.7347    0.3511    0.0000 C   0  0  0  0  0  0  0  0  0  0  0  0
    4.2345    0.3763    0.0000 S   0  0  0  0  0  0  0  0  0  0  0  0
    0.5068   -0.9856    0.0000 C   0  0  0  0  0  0  0  0  0  0  0  0
   -0.2212   -2.2971    0.0000 O   0  0  0  0  0  0  0  0  0  0  0  0
   -0.2649    0.3006    0.0000 N   0  0  0  0  0  0  0  0  0  0  0  0
    0.3221    1.6810    0.0000 C   0  0  0  0  0  0  0  0  0  0  0  0
    1.7838    2.0175    0.0000 O   0  0  0  0  0  0  0  0  0  0  0  0
   -0.8094    2.6658    0.0000 C   0  0  0  0  0  0  0  0  0  0  0  0
   -2.0956    1.8941    0.0000 C   0  0  0  0  0  0  0  0  0  0  0  0
   -1.7591    0.4323    0.0000 C   0  0  0  0  0  0  0  0  0  0  0  0
   -2.7439   -0.6991    0.0000 C   0  0  0  0  0  0  0  0  0  0  0  0
   -2.2565   -2.1177    0.0000 O   0  0  0  0  0  0  0  0  0  0  0  0
   -4.2162   -0.4120    0.0000 O   0  0  0  0  0  0  0  0  0  0  0  0
  1  2  1  0
  2  3  1  0
  3  4  1  0
  2  5  1  0
  5  6  2  0
  5  7  1  0
  7  8  1  0
  8  9  2  0
  8 10  1  0
 10 11  1  0
 11 12  1  0
 12 13  1  0
 13 14  2  0
 13 15  1  0
 12  7  1  0
M  CHG  1  15  -1
M  END
>  <pIC50_class>  (56) 
positive

$$$$

     RDKit          2D

 16 17  0  0  0  0  0  0  0  0999 V2000
    4.4744   -0.8350    0.0000 O   0  0  0  0  0  0  0  0  0  0  0  0
    2.9774   -0.9305    0.0000 C   0  0  0  0  0  0  0  0  0  0  0  0
    2.3116   -2.2746    0.0000 O   0  0  0  0  0  0  0  0  0  0  0  0
    2.1462    0.3182    0.0000 C   0  0  0  0  0  0  0  0  0  0  0  0
    2.6679    1.7246    0.0000 C   0  0  0  0  0  0  0  0  0  0  0  0
    1.4915    2.6552    0.0000 C   0  0  0  0  0  0  0  0  0  0  0  0
    0.2428    1.8241    0.0000 C   0  0  0  0  0  0  0  0  0  0  0  0
    0.6475    0.3797    0.0000 N   0  0  0  0  0  0  0  0  0  0  0  0
   -0.2832   -0.7967    0.0000 C   0  0  0  0  0  0  0  0  0  0  0  0
    0.2702   -2.1909    0.0000 O   0  0  0  0  0  0  0  0  0  0  0  0
   -1.7673   -0.5789    0.0000 C   0  0  0  0  0  0  0  0  0  0  0  0
   -2.8158   -1.6515    0.0000 C   0  0  0  0  0  0  0  0  0  0  0  0
   -4.1600   -0.9857    0.0000 C   0  0  0  0  0  0  0  0  0  0  0  0
   -3.9422    0.4984    0.0000 C   0  0  0  0  0  0  0  0  0  0  0  0
   -2.4634    0.7498    0.0000 C   0  0  0  0  0  0  0  0  0  0  0  0
   -1.7976    2.0940    0.0000 S   0  0  0  0  0  0  0  0  0  0  0  0
  1  2  2  0
  2  3  1  0
  2  4  1  0
  4  5  1  0
  5  6  1  0
  6  7  1  0
  7  8  1  0
  8  9  1  0
  9 10  2  0
  9 11  1  0
 11 12  1  0
 12 13  1  0
 13 14  1  0
 14 15  1  0
 15 16  1  0
  8  4  1  0
 15 11  1  0
M  CHG  1   3  -1
M  END
>  <pIC50_class>  (57) 
negative

$$$$

     RDKit          2D

 15 16  0  0  0  0  0  0  0  0999 V2000
    4.1023   -1.4138    0.0000 O   0  0  0  0  0  0  0  0  0  0  0  0
    2.6189   -1.1912    0.0000 C   0  0  0  0  0  0  0  0  0  0  0  0
    1.6844   -2.3645    0.0000 O   0  0  0  0  0  0  0  0  0  0  0  0
    2.0700    0.2048    0.0000 C   0  0  0  0  0  0  0  0  0  0  0  0
    2.8768    1.4694    0.0000 C   0  0  0  0  0  0  0  0  0  0  0  0
    1.9234    2.6274    0.0000 C   0  0  0  0  0  0  0  0  0  0  0  0
    0.5274    2.0785    0.0000 C   0  0  0  0  0  0  0  0  0  0  0  0
    0.6180    0.5812    0.0000 N   0  0  0  0  0  0  0  0  0  0  0  0
   -0.5400   -0.3722    0.0000 C   0  0  0  0  0  0  0  0  0  0  0  0
   -0.2933   -1.8518    0.0000 O   0  0  0  0  0  0  0  0  0  0  0  0
   -1.9447    0.1540    0.0000 C   0  0  0  0  0  0  0  0  0  0  0  0
   -2.5659    1.5193    0.0000 C   0  0  0  0  0  0  0  0  0  0  0  0
   -3.9312    0.8981    0.0000 C   0  0  0  0  0  0  0  0  0  0  0  0
   -3.3100   -0.4672    0.0000 C   0  0  0  0  0  0  0  0  0  0  0  0
   -3.8362   -1.8719    0.0000 S   0  0  0  0  0  0  0  0  0  0  0  0
  1  2  2  0
  2  3  1  0
  2  4  1  0
  4  5  1  0
  5  6  1  0
  6  7  1  0
  7  8  1  0
  8  9  1  0
  9 10  2  0
  9 11  1  0
 11 12  1  0
 12 13  1  0
 13 14  1  0
 14 15  1  0
  8  4  1  0
 14 11  1  0
M  CHG  1   3  -1
M  END
>  <pIC50_class>  (58) 
negative

$$$$

     RDKit          2D

 29 31  0  0  0  0  0  0  0  0999 V2000
    3.3663    2.4707    0.0000 O   0  0  0  0  0  0  0  0  0  0  0  0
    1.8885    2.7281    0.0000 C   0  0  0  0  0  0  0  0  0  0  0  0
    1.3725    4.1365    0.0000 O   0  0  0  0  0  0  0  0  0  0  0  0
    0.9267    1.5770    0.0000 C   0  0  0  0  0  0  0  0  0  0  0  0
    1.4427    0.1685    0.0000 N   0  0  0  0  0  0  0  0  0  0  0  0
    0.3976   -0.9075    0.0000 C   0  0  0  0  0  0  0  0  0  0  0  0
   -1.0253   -0.4327    0.0000 O   0  0  0  0  0  0  0  0  0  0  0  0
    0.5873   -2.3954    0.0000 C   0  0  0  0  0  0  0  0  0  0  0  0
   -0.6711   -3.2119    0.0000 N   0  0  0  0  0  0  0  0  0  0  0  0
   -2.0073   -2.5304    0.0000 C   0  0  0  0  0  0  0  0  0  0  0  0
   -2.0852   -1.0324    0.0000 C   0  0  0  0  0  0  0  0  0  0  0  0
   -3.4215   -0.3509    0.0000 C   0  0  0  0  0  0  0  0  0  0  0  0
   -3.4994    1.1471    0.0000 C   0  0  0  0  0  0  0  0  0  0  0  0
   -4.8356    1.8286    0.0000 C   0  0  0  0  0  0  0  0  0  0  0  0
   -4.9135    3.3266    0.0000 C   0  0  0  0  0  0  0  0  0  0  0  0
   -3.6552    4.1430    0.0000 C   0  0  0  0  0  0  0  0  0  0  0  0
   -2.3190    3.4615    0.0000 C   0  0  0  0  0  0  0  0  0  0  0  0
   -2.2410    1.9635    0.0000 C   0  0  0  0  0  0  0  0  0  0  0  0
   -3.2656   -3.3469    0.0000 C   0  0  0  0  0  0  0  0  0  0  0  0
   -3.1877   -4.8448    0.0000 O   0  0  0  0  0  0  0  0  0  0  0  0
   -4.6019   -2.6653    0.0000 O   0  0  0  0  0  0  0  0  0  0  0  0
    1.8688   -3.1749    0.0000 C   0  0  0  0  0  0  0  0  0  0  0  0
    3.2773   -2.6589    0.0000 C   0  0  0  0  0  0  0  0  0  0  0  0
    3.7520   -1.2360    0.0000 C   0  0  0  0  0  0  0  0  0  0  0  0
    5.2500   -1.1581    0.0000 C   0  0  0  0  0  0  0  0  0  0  0  0
    5.9315    0.1781    0.0000 C   0  0  0  0  0  0  0  0  0  0  0  0
    5.1151    1.4364    0.0000 C   0  0  0  0  0  0  0  0  0  0  0  0
    3.6171    1.3585    0.0000 C   0  0  0  0  0  0  0  0  0  0  0  0
    2.9356    0.0223    0.0000 C   0  0  0  0  0  0  0  0  0  0  0  0
  1  2  2  0
  2  3  1  0
  2  4  1  0
  4  5  1  0
  5  6  1  0
  6  7  2  0
  6  8  1  0
  8  9  1  0
  9 10  1  0
 10 11  1  0
 11 12  1  0
 12 13  1  0
 13 14  2  0
 14 15  1  0
 15 16  2  0
 16 17  1  0
 17 18  2  0
 10 19  1  0
 19 20  2  0
 19 21  1  0
  8 22  1  0
 22 23  1  0
 23 24  1  0
 24 25  2  0
 25 26  1  0
 26 27  2  0
 27 28  1  0
 28 29  2  0
 29  5  1  0
 18 13  1  0
 29 24  1  0
M  CHG  3   3  -1   9   1  21  -1
M  END
>  <pIC50_class>  (59) 
positive

$$$$

     RDKit          2D

 24 25  0  0  0  0  0  0  0  0999 V2000
   -2.3789    3.1195    0.0000 C   0  0  0  0  0  0  0  0  0  0  0  0
   -1.5821    1.8486    0.0000 C   0  0  0  0  0  0  0  0  0  0  0  0
   -0.0831    1.9032    0.0000 N   0  0  0  0  0  0  0  0  0  0  0  0
    0.7137    0.6324    0.0000 C   0  0  0  0  0  0  0  0  0  0  0  0
    0.0115   -0.6931    0.0000 O   0  0  0  0  0  0  0  0  0  0  0  0
    2.2127    0.6870    0.0000 C   0  0  0  0  0  0  0  0  0  0  0  0
    2.9149    2.0125    0.0000 S   0  0  0  0  0  0  0  0  0  0  0  0
    3.0095   -0.5838    0.0000 C   0  0  0  0  0  0  0  0  0  0  0  0
    4.5086   -0.5292    0.0000 C   0  0  0  0  0  0  0  0  0  0  0  0
    5.3054   -1.8001    0.0000 C   0  0  0  0  0  0  0  0  0  0  0  0
    6.8044   -1.7454    0.0000 C   0  0  0  0  0  0  0  0  0  0  0  0
    7.5066   -0.4199    0.0000 C   0  0  0  0  0  0  0  0  0  0  0  0
    6.7097    0.8509    0.0000 C   0  0  0  0  0  0  0  0  0  0  0  0
    5.2107    0.7963    0.0000 C   0  0  0  0  0  0  0  0  0  0  0  0
   -2.2843    0.5231    0.0000 C   0  0  0  0  0  0  0  0  0  0  0  0
   -1.4875   -0.7478    0.0000 O   0  0  0  0  0  0  0  0  0  0  0  0
   -3.7833    0.4685    0.0000 N   0  0  0  0  0  0  0  0  0  0  0  0
   -4.7086    1.6491    0.0000 C   0  0  0  0  0  0  0  0  0  0  0  0
   -6.1173    1.1339    0.0000 C   0  0  0  0  0  0  0  0  0  0  0  0
   -6.0627   -0.3651    0.0000 C   0  0  0  0  0  0  0  0  0  0  0  0
   -4.6202   -0.7764    0.0000 C   0  0  0  0  0  0  0  0  0  0  0  0
   -4.1050   -2.1851    0.0000 C   0  0  0  0  0  0  0  0  0  0  0  0
   -2.6274   -2.4433    0.0000 O   0  0  0  0  0  0  0  0  0  0  0  0
   -5.0674   -3.3357    0.0000 O   0  0  0  0  0  0  0  0  0  0  0  0
  1  2  1  0
  2  3  1  0
  3  4  1  0
  4  5  2  0
  4  6  1  0
  6  7  1  0
  6  8  1  0
  8  9  1  0
  9 10  2  0
 10 11  1  0
 11 12  2  0
 12 13  1  0
 13 14  2  0
  2 15  1  0
 15 16  2  0
 15 17  1  0
 17 18  1  0
 18 19  1  0
 19 20  1  0
 20 21  1  0
 21 22  1  0
 22 23  2  0
 22 24  1  0
 14  9  1  0
 21 17  1  0
M  CHG  1  24  -1
M  END
>  <pIC50_class>  (60) 
negative

$$$$

     RDKit          2D

 31 32  0  0  0  0  0  0  0  0999 V2000
   -4.8411   -1.8995    0.0000 C   0  0  0  0  0  0  0  0  0  0  0  0
   -3.8284   -0.7929    0.0000 C   0  0  0  0  0  0  0  0  0  0  0  0
   -2.3638   -1.1167    0.0000 N   0  0  0  0  0  0  0  0  0  0  0  0
   -1.9119   -2.5470    0.0000 C   0  0  0  0  0  0  0  0  0  0  0  0
   -0.4472   -2.8707    0.0000 C   0  0  0  0  0  0  0  0  0  0  0  0
    0.5655   -1.7642    0.0000 C   0  0  0  0  0  0  0  0  0  0  0  0
    2.0301   -2.0879    0.0000 C   0  0  0  0  0  0  0  0  0  0  0  0
    3.0428   -0.9814    0.0000 N   0  0  0  0  0  0  0  0  0  0  0  0
    4.5075   -1.3051    0.0000 C   0  0  0  0  0  0  0  0  0  0  0  0
    4.9594   -2.7354    0.0000 O   0  0  0  0  0  0  0  0  0  0  0  0
    5.5202   -0.1986    0.0000 O   0  0  0  0  0  0  0  0  0  0  0  0
    6.9848   -0.5223    0.0000 C   0  0  0  0  0  0  0  0  0  0  0  0
    7.9975    0.5842    0.0000 C   0  0  0  0  0  0  0  0  0  0  0  0
    9.4622    0.2605    0.0000 C   0  0  0  0  0  0  0  0  0  0  0  0
   10.4749    1.3670    0.0000 C   0  0  0  0  0  0  0  0  0  0  0  0
   10.0229    2.7973    0.0000 C   0  0  0  0  0  0  0  0  0  0  0  0
    8.5583    3.1210    0.0000 C   0  0  0  0  0  0  0  0  0  0  0  0
    7.5456    2.0145    0.0000 C   0  0  0  0  0  0  0  0  0  0  0  0
   -2.9246   -3.6535    0.0000 C   0  0  0  0  0  0  0  0  0  0  0  0
   -2.4726   -5.0838    0.0000 O   0  0  0  0  0  0  0  0  0  0  0  0
   -4.3892   -3.3298    0.0000 O   0  0  0  0  0  0  0  0  0  0  0  0
   -4.2804    0.6374    0.0000 C   0  0  0  0  0  0  0  0  0  0  0  0
   -3.2677    1.7439    0.0000 O   0  0  0  0  0  0  0  0  0  0  0  0
   -5.7450    0.9611    0.0000 N   0  0  0  0  0  0  0  0  0  0  0  0
   -6.8679   -0.0335    0.0000 C   0  0  0  0  0  0  0  0  0  0  0  0
   -8.1608    0.7270    0.0000 C   0  0  0  0  0  0  0  0  0  0  0  0
   -7.8370    2.1916    0.0000 C   0  0  0  0  0  0  0  0  0  0  0  0
   -6.3440    2.3363    0.0000 C   0  0  0  0  0  0  0  0  0  0  0  0
   -5.5835    3.6292    0.0000 C   0  0  0  0  0  0  0  0  0  0  0  0
   -6.3230    4.9343    0.0000 O   0  0  0  0  0  0  0  0  0  0  0  0
   -4.0836    3.6171    0.0000 O   0  0  0  0  0  0  0  0  0  0  0  0
  1  2  1  0
  2  3  1  0
  3  4  1  0
  4  5  1  0
  5  6  1  0
  6  7  1  0
  7  8  1  0
  8  9  1  0
  9 10  2  0
  9 11  1  0
 11 12  1  0
 12 13  1  0
 13 14  2  0
 14 15  1  0
 15 16  2  0
 16 17  1  0
 17 18  2  0
  4 19  1  0
 19 20  2  0
 19 21  1  0
  2 22  1  0
 22 23  2  0
 22 24  1  0
 24 25  1  0
 25 26  1  0
 26 27  1  0
 27 28  1  0
 28 29  1  0
 29 30  2  0
 29 31  1  0
 18 13  1  0
 28 24  1  0
M  CHG  3   3   1  21  -1  31  -1
M  END
>  <pIC50_class>  (61) 
positive

$$$$

     RDKit          2D

 26 27  0  0  0  0  0  0  0  0999 V2000
   -6.2462   -1.3034    0.0000 C   0  0  0  0  0  0  0  0  0  0  0  0
   -4.7472   -1.2494    0.0000 C   0  0  0  0  0  0  0  0  0  0  0  0
   -4.0481   -2.5765    0.0000 C   0  0  0  0  0  0  0  0  0  0  0  0
   -2.5747   -2.8574    0.0000 C   0  0  0  0  0  0  0  0  0  0  0  0
   -1.4363   -1.8806    0.0000 C   0  0  0  0  0  0  0  0  0  0  0  0
   -1.4904   -0.3816    0.0000 C   0  0  0  0  0  0  0  0  0  0  0  0
   -0.1632    0.3175    0.0000 N   0  0  0  0  0  0  0  0  0  0  0  0
    1.1058   -0.4823    0.0000 C   0  0  0  0  0  0  0  0  0  0  0  0
    2.4329    0.2168    0.0000 C   0  0  0  0  0  0  0  0  0  0  0  0
    3.7019   -0.5831    0.0000 C   0  0  0  0  0  0  0  0  0  0  0  0
    5.0290    0.1160    0.0000 C   0  0  0  0  0  0  0  0  0  0  0  0
    6.2980   -0.6838    0.0000 C   0  0  0  0  0  0  0  0  0  0  0  0
    7.6252    0.0153    0.0000 C   0  0  0  0  0  0  0  0  0  0  0  0
    7.6833    1.5141    0.0000 C   0  0  0  0  0  0  0  0  0  0  0  0
    6.4143    2.3140    0.0000 C   0  0  0  0  0  0  0  0  0  0  0  0
    5.0872    1.6149    0.0000 C   0  0  0  0  0  0  0  0  0  0  0  0
    1.0476   -1.9812    0.0000 C   0  0  0  0  0  0  0  0  0  0  0  0
   -0.2795   -2.6802    0.0000 O   0  0  0  0  0  0  0  0  0  0  0  0
    2.3166   -2.7810    0.0000 O   0  0  0  0  0  0  0  0  0  0  0  0
   -2.6960    0.5108    0.0000 C   0  0  0  0  0  0  0  0  0  0  0  0
   -2.4151    1.9843    0.0000 O   0  0  0  0  0  0  0  0  0  0  0  0
   -4.1454    0.1246    0.0000 N   0  0  0  0  0  0  0  0  0  0  0  0
   -5.1223    1.2629    0.0000 C   0  0  0  0  0  0  0  0  0  0  0  0
   -4.6249    2.6781    0.0000 C   0  0  0  0  0  0  0  0  0  0  0  0
   -3.1507    2.9549    0.0000 O   0  0  0  0  0  0  0  0  0  0  0  0
   -5.6018    3.8164    0.0000 O   0  0  0  0  0  0  0  0  0  0  0  0
  1  2  1  0
  2  3  1  0
  3  4  1  0
  4  5  1  0
  5  6  1  0
  6  7  1  0
  7  8  1  0
  8  9  1  0
  9 10  1  0
 10 11  1  0
 11 12  2  0
 12 13  1  0
 13 14  2  0
 14 15  1  0
 15 16  2  0
  8 17  1  0
 17 18  2  0
 17 19  1  0
  6 20  1  0
 20 21  2  0
 20 22  1  0
 22 23  1  0
 23 24  1  0
 24 25  2  0
 24 26  1  0
 22  2  1  0
 16 11  1  0
M  CHG  3   7   1  19  -1  26  -1
M  END
>  <pIC50_class>  (62) 
positive

$$$$

     RDKit          2D

 29 30  0  0  0  0  0  0  0  0999 V2000
   -3.3799    2.1828    0.0000 C   0  0  0  0  0  0  0  0  0  0  0  0
   -2.7078    0.8418    0.0000 C   0  0  0  0  0  0  0  0  0  0  0  0
   -1.2104    0.7534    0.0000 N   0  0  0  0  0  0  0  0  0  0  0  0
   -0.3851    2.0059    0.0000 C   0  0  0  0  0  0  0  0  0  0  0  0
    1.1123    1.9174    0.0000 C   0  0  0  0  0  0  0  0  0  0  0  0
    1.7844    0.5764    0.0000 C   0  0  0  0  0  0  0  0  0  0  0  0
    3.2818    0.4880    0.0000 C   0  0  0  0  0  0  0  0  0  0  0  0
    4.1071    1.7405    0.0000 O   0  0  0  0  0  0  0  0  0  0  0  0
    3.9538   -0.8531    0.0000 N   0  0  0  0  0  0  0  0  0  0  0  0
    5.4512   -0.9415    0.0000 C   0  0  0  0  0  0  0  0  0  0  0  0
    6.1233   -2.2825    0.0000 C   0  0  0  0  0  0  0  0  0  0  0  0
    7.6207   -2.3710    0.0000 C   0  0  0  0  0  0  0  0  0  0  0  0
    8.4460   -1.1185    0.0000 C   0  0  0  0  0  0  0  0  0  0  0  0
    9.9434   -1.2069    0.0000 I   0  0  0  0  0  0  0  0  0  0  0  0
    7.7739    0.2225    0.0000 C   0  0  0  0  0  0  0  0  0  0  0  0
    6.2765    0.3110    0.0000 C   0  0  0  0  0  0  0  0  0  0  0  0
   -1.0572    3.3469    0.0000 C   0  0  0  0  0  0  0  0  0  0  0  0
   -0.2319    4.5995    0.0000 O   0  0  0  0  0  0  0  0  0  0  0  0
   -2.5546    3.4354    0.0000 O   0  0  0  0  0  0  0  0  0  0  0  0
   -3.5331   -0.4107    0.0000 C   0  0  0  0  0  0  0  0  0  0  0  0
   -2.8610   -1.7517    0.0000 O   0  0  0  0  0  0  0  0  0  0  0  0
   -5.0305   -0.3222    0.0000 N   0  0  0  0  0  0  0  0  0  0  0  0
   -5.8391    0.9412    0.0000 C   0  0  0  0  0  0  0  0  0  0  0  0
   -7.2905    0.5626    0.0000 C   0  0  0  0  0  0  0  0  0  0  0  0
   -7.3790   -0.9348    0.0000 C   0  0  0  0  0  0  0  0  0  0  0  0
   -5.9822   -1.4816    0.0000 C   0  0  0  0  0  0  0  0  0  0  0  0
   -5.6036   -2.9331    0.0000 C   0  0  0  0  0  0  0  0  0  0  0  0
   -4.1574   -3.3309    0.0000 O   0  0  0  0  0  0  0  0  0  0  0  0
   -6.6713   -3.9867    0.0000 O   0  0  0  0  0  0  0  0  0  0  0  0
  1  2  1  0
  2  3  1  0
  3  4  1  0
  4  5  1  0
  5  6  1  0
  6  7  1  0
  7  8  2  0
  7  9  1  0
  9 10  1  0
 10 11  2  0
 11 12  1  0
 12 13  2  0
 13 14  1  0
 13 15  1  0
 15 16  2  0
  4 17  1  0
 17 18  2  0
 17 19  1  0
  2 20  1  0
 20 21  2  0
 20 22  1  0
 22 23  1  0
 23 24  1  0
 24 25  1  0
 25 26  1  0
 26 27  1  0
 27 28  2  0
 27 29  1  0
 16 10  1  0
 26 22  1  0
M  CHG  3   3   1  19  -1  29  -1
M  END
>  <pIC50_class>  (63) 
positive

$$$$

     RDKit          2D

 25 26  0  0  0  0  0  0  0  0999 V2000
   -1.5966    2.2117    0.0000 C   0  0  0  0  0  0  0  0  0  0  0  0
   -1.2071    0.7631    0.0000 C   0  0  0  0  0  0  0  0  0  0  0  0
    0.2421    0.3761    0.0000 N   0  0  0  0  0  0  0  0  0  0  0  0
    1.3018    1.4377    0.0000 C   0  0  0  0  0  0  0  0  0  0  0  0
    2.7511    1.0506    0.0000 C   0  0  0  0  0  0  0  0  0  0  0  0
    3.1405   -0.3979    0.0000 C   0  0  0  0  0  0  0  0  0  0  0  0
    4.5897   -0.7849    0.0000 C   0  0  0  0  0  0  0  0  0  0  0  0
    4.9791   -2.2335    0.0000 C   0  0  0  0  0  0  0  0  0  0  0  0
    6.4284   -2.6205    0.0000 C   0  0  0  0  0  0  0  0  0  0  0  0
    7.4881   -1.5590    0.0000 C   0  0  0  0  0  0  0  0  0  0  0  0
    7.0987   -0.1104    0.0000 C   0  0  0  0  0  0  0  0  0  0  0  0
    5.6495    0.2766    0.0000 C   0  0  0  0  0  0  0  0  0  0  0  0
    0.9124    2.8862    0.0000 C   0  0  0  0  0  0  0  0  0  0  0  0
    1.9722    3.9478    0.0000 O   0  0  0  0  0  0  0  0  0  0  0  0
   -0.5368    3.2732    0.0000 O   0  0  0  0  0  0  0  0  0  0  0  0
   -2.2669   -0.2984    0.0000 C   0  0  0  0  0  0  0  0  0  0  0  0
   -1.8775   -1.7470    0.0000 O   0  0  0  0  0  0  0  0  0  0  0  0
   -3.7161    0.0886    0.0000 N   0  0  0  0  0  0  0  0  0  0  0  0
   -4.2548    1.4885    0.0000 C   0  0  0  0  0  0  0  0  0  0  0  0
   -5.7527    1.4088    0.0000 C   0  0  0  0  0  0  0  0  0  0  0  0
   -6.1397   -0.0404    0.0000 C   0  0  0  0  0  0  0  0  0  0  0  0
   -4.8811   -0.8563    0.0000 C   0  0  0  0  0  0  0  0  0  0  0  0
   -4.8013   -2.3542    0.0000 C   0  0  0  0  0  0  0  0  0  0  0  0
   -3.4642   -3.0341    0.0000 O   0  0  0  0  0  0  0  0  0  0  0  0
   -6.0586   -3.1722    0.0000 O   0  0  0  0  0  0  0  0  0  0  0  0
  1  2  1  0
  2  3  1  0
  3  4  1  0
  4  5  1  0
  5  6  1  0
  6  7  1  0
  7  8  2  0
  8  9  1  0
  9 10  2  0
 10 11  1  0
 11 12  2  0
  4 13  1  0
 13 14  2  0
 13 15  1  0
  2 16  1  0
 16 17  2  0
 16 18  1  0
 18 19  1  0
 19 20  1  0
 20 21  1  0
 21 22  1  0
 22 23  1  0
 23 24  2  0
 23 25  1  0
 12  7  1  0
 22 18  1  0
M  CHG  3   3   1  15  -1  25  -1
M  END
>  <pIC50_class>  (64) 
positive

$$$$

     RDKit          2D

 29 30  0  0  0  0  0  0  0  0999 V2000
   -5.5310   -4.4234    0.0000 N   0  0  0  0  0  0  0  0  0  0  0  0
   -4.9014   -3.0620    0.0000 C   0  0  0  0  0  0  0  0  0  0  0  0
   -3.4075   -2.9265    0.0000 C   0  0  0  0  0  0  0  0  0  0  0  0
   -2.7779   -1.5651    0.0000 C   0  0  0  0  0  0  0  0  0  0  0  0
   -1.2840   -1.4296    0.0000 C   0  0  0  0  0  0  0  0  0  0  0  0
   -0.6544   -0.0681    0.0000 C   0  0  0  0  0  0  0  0  0  0  0  0
    0.8394    0.0673    0.0000 N   0  0  0  0  0  0  0  0  0  0  0  0
    1.7037   -1.1587    0.0000 C   0  0  0  0  0  0  0  0  0  0  0  0
    3.1976   -1.0232    0.0000 C   0  0  0  0  0  0  0  0  0  0  0  0
    3.8272    0.3383    0.0000 C   0  0  0  0  0  0  0  0  0  0  0  0
    5.3211    0.4737    0.0000 C   0  0  0  0  0  0  0  0  0  0  0  0
    5.9507    1.8352    0.0000 C   0  0  0  0  0  0  0  0  0  0  0  0
    7.4445    1.9707    0.0000 C   0  0  0  0  0  0  0  0  0  0  0  0
    8.3088    0.7447    0.0000 C   0  0  0  0  0  0  0  0  0  0  0  0
    7.6792   -0.6168    0.0000 C   0  0  0  0  0  0  0  0  0  0  0  0
    6.1853   -0.7523    0.0000 C   0  0  0  0  0  0  0  0  0  0  0  0
    1.0741   -2.5201    0.0000 C   0  0  0  0  0  0  0  0  0  0  0  0
    1.9383   -3.7461    0.0000 O   0  0  0  0  0  0  0  0  0  0  0  0
   -0.4198   -2.6556    0.0000 O   0  0  0  0  0  0  0  0  0  0  0  0
   -1.5187    1.1579    0.0000 C   0  0  0  0  0  0  0  0  0  0  0  0
   -0.8891    2.5193    0.0000 O   0  0  0  0  0  0  0  0  0  0  0  0
   -3.0125    1.0224    0.0000 N   0  0  0  0  0  0  0  0  0  0  0  0
   -3.7810   -0.2658    0.0000 C   0  0  0  0  0  0  0  0  0  0  0  0
   -5.2436    0.0670    0.0000 C   0  0  0  0  0  0  0  0  0  0  0  0
   -5.3791    1.5609    0.0000 C   0  0  0  0  0  0  0  0  0  0  0  0
   -4.0002    2.1513    0.0000 C   0  0  0  0  0  0  0  0  0  0  0  0
   -3.6674    3.6140    0.0000 C   0  0  0  0  0  0  0  0  0  0  0  0
   -2.2344    4.0571    0.0000 O   0  0  0  0  0  0  0  0  0  0  0  0
   -4.7677    4.6335    0.0000 O   0  0  0  0  0  0  0  0  0  0  0  0
  1  2  1  0
  2  3  1  0
  3  4  1  0
  4  5  1  0
  5  6  1  0
  6  7  1  0
  7  8  1  0
  8  9  1  0
  9 10  1  0
 10 11  1  0
 11 12  2  0
 12 13  1  0
 13 14  2  0
 14 15  1  0
 15 16  2  0
  8 17  1  0
 17 18  2  0
 17 19  1  0
  6 20  1  0
 20 21  2  0
 20 22  1  0
 22 23  1  0
 23 24  1  0
 24 25  1  0
 25 26  1  0
 26 27  1  0
 27 28  2  0
 27 29  1  0
 16 11  1  0
 26 22  1  0
M  CHG  4   1   1   7   1  19  -1  29  -1
M  END
>  <pIC50_class>  (65) 
positive

$$$$

     RDKit          2D

 29 31  0  0  0  0  0  0  0  0999 V2000
    2.7923    2.3306    0.0000 C   0  0  0  0  0  0  0  0  0  0  0  0
    2.1421    0.9789    0.0000 C   0  0  0  0  0  0  0  0  0  0  0  0
    0.6463    0.8661    0.0000 N   0  0  0  0  0  0  0  0  0  0  0  0
   -0.1992    2.1051    0.0000 C   0  0  0  0  0  0  0  0  0  0  0  0
   -1.6949    1.9923    0.0000 C   0  0  0  0  0  0  0  0  0  0  0  0
   -2.3452    0.6406    0.0000 C   0  0  0  0  0  0  0  0  0  0  0  0
   -3.8409    0.5278    0.0000 C   0  0  0  0  0  0  0  0  0  0  0  0
   -4.6865    1.7668    0.0000 C   0  0  0  0  0  0  0  0  0  0  0  0
   -6.1822    1.6540    0.0000 C   0  0  0  0  0  0  0  0  0  0  0  0
   -6.8324    0.3022    0.0000 C   0  0  0  0  0  0  0  0  0  0  0  0
   -5.9869   -0.9367    0.0000 C   0  0  0  0  0  0  0  0  0  0  0  0
   -6.6371   -2.2885    0.0000 C   0  0  0  0  0  0  0  0  0  0  0  0
   -5.7916   -3.5275    0.0000 C   0  0  0  0  0  0  0  0  0  0  0  0
   -4.2958   -3.4147    0.0000 C   0  0  0  0  0  0  0  0  0  0  0  0
   -3.6456   -2.0629    0.0000 C   0  0  0  0  0  0  0  0  0  0  0  0
   -4.4911   -0.8240    0.0000 C   0  0  0  0  0  0  0  0  0  0  0  0
    0.4510    3.4568    0.0000 C   0  0  0  0  0  0  0  0  0  0  0  0
   -0.3945    4.6958    0.0000 O   0  0  0  0  0  0  0  0  0  0  0  0
    1.9468    3.5696    0.0000 O   0  0  0  0  0  0  0  0  0  0  0  0
    2.9876   -0.2601    0.0000 C   0  0  0  0  0  0  0  0  0  0  0  0
    2.3374   -1.6119    0.0000 O   0  0  0  0  0  0  0  0  0  0  0  0
    4.4834   -0.1474    0.0000 N   0  0  0  0  0  0  0  0  0  0  0  0
    5.2713    1.1290    0.0000 C   0  0  0  0  0  0  0  0  0  0  0  0
    6.7287    0.7741    0.0000 C   0  0  0  0  0  0  0  0  0  0  0  0
    6.8415   -0.7217    0.0000 C   0  0  0  0  0  0  0  0  0  0  0  0
    5.4538   -1.2912    0.0000 C   0  0  0  0  0  0  0  0  0  0  0  0
    5.0988   -2.7486    0.0000 C   0  0  0  0  0  0  0  0  0  0  0  0
    3.6592   -3.1698    0.0000 O   0  0  0  0  0  0  0  0  0  0  0  0
    6.1835   -3.7847    0.0000 O   0  0  0  0  0  0  0  0  0  0  0  0
  1  2  1  0
  2  3  1  0
  3  4  1  0
  4  5  1  0
  5  6  1  0
  6  7  1  0
  7  8  2  0
  8  9  1  0
  9 10  2  0
 10 11  1  0
 11 12  2  0
 12 13  1  0
 13 14  2  0
 14 15  1  0
 15 16  2  0
  4 17  1  0
 17 18  2  0
 17 19  1  0
  2 20  1  0
 20 21  2  0
 20 22  1  0
 22 23  1  0
 23 24  1  0
 24 25  1  0
 25 26  1  0
 26 27  1  0
 27 28  2  0
 27 29  1  0
 16  7  1  0
 26 22  1  0
 16 11  1  0
M  CHG  3   3   1  19  -1  29  -1
M  END
>  <pIC50_class>  (66) 
positive

$$$$

     RDKit          2D

 26 27  0  0  0  0  0  0  0  0999 V2000
   -2.0252    2.2117    0.0000 C   0  0  0  0  0  0  0  0  0  0  0  0
   -1.5814    0.7789    0.0000 C   0  0  0  0  0  0  0  0  0  0  0  0
   -0.1186    0.4468    0.0000 N   0  0  0  0  0  0  0  0  0  0  0  0
    0.9004    1.5476    0.0000 C   0  0  0  0  0  0  0  0  0  0  0  0
    2.3631    1.2155    0.0000 C   0  0  0  0  0  0  0  0  0  0  0  0
    2.8069   -0.2174    0.0000 C   0  0  0  0  0  0  0  0  0  0  0  0
    4.2697   -0.5494    0.0000 C   0  0  0  0  0  0  0  0  0  0  0  0
    4.7135   -1.9823    0.0000 C   0  0  0  0  0  0  0  0  0  0  0  0
    6.1763   -2.3144    0.0000 C   0  0  0  0  0  0  0  0  0  0  0  0
    7.1953   -1.2136    0.0000 C   0  0  0  0  0  0  0  0  0  0  0  0
    8.6581   -1.5457    0.0000 O   0  0  0  0  0  0  0  0  0  0  0  0
    6.7515    0.2192    0.0000 C   0  0  0  0  0  0  0  0  0  0  0  0
    5.2887    0.5513    0.0000 C   0  0  0  0  0  0  0  0  0  0  0  0
    0.4566    2.9804    0.0000 C   0  0  0  0  0  0  0  0  0  0  0  0
    1.4755    4.0812    0.0000 O   0  0  0  0  0  0  0  0  0  0  0  0
   -1.0062    3.3125    0.0000 O   0  0  0  0  0  0  0  0  0  0  0  0
   -2.6004   -0.3219    0.0000 C   0  0  0  0  0  0  0  0  0  0  0  0
   -2.1566   -1.7547    0.0000 O   0  0  0  0  0  0  0  0  0  0  0  0
   -4.0631    0.0102    0.0000 N   0  0  0  0  0  0  0  0  0  0  0  0
   -4.6543    1.3888    0.0000 C   0  0  0  0  0  0  0  0  0  0  0  0
   -6.1481    1.2526    0.0000 C   0  0  0  0  0  0  0  0  0  0  0  0
   -6.4802   -0.2102    0.0000 C   0  0  0  0  0  0  0  0  0  0  0  0
   -5.1916   -0.9780    0.0000 C   0  0  0  0  0  0  0  0  0  0  0  0
   -5.0554   -2.4718    0.0000 C   0  0  0  0  0  0  0  0  0  0  0  0
   -3.6936   -3.1008    0.0000 O   0  0  0  0  0  0  0  0  0  0  0  0
   -6.2810   -3.3367    0.0000 O   0  0  0  0  0  0  0  0  0  0  0  0
  1  2  1  0
  2  3  1  0
  3  4  1  0
  4  5  1  0
  5  6  1  0
  6  7  1  0
  7  8  2  0
  8  9  1  0
  9 10  2  0
 10 11  1  0
 10 12  1  0
 12 13  2  0
  4 14  1  0
 14 15  2  0
 14 16  1  0
  2 17  1  0
 17 18  2  0
 17 19  1  0
 19 20  1  0
 20 21  1  0
 21 22  1  0
 22 23  1  0
 23 24  1  0
 24 25  2  0
 24 26  1  0
 13  7  1  0
 23 19  1  0
M  CHG  3   3   1  16  -1  26  -1
M  END
>  <pIC50_class>  (67) 
positive

$$$$

     RDKit          2D

 27 29  0  0  0  0  0  0  0  0999 V2000
    0.0807   -2.6908    0.0000 O   0  0  0  0  0  0  0  0  0  0  0  0
    1.3961   -1.9699    0.0000 C   0  0  0  0  0  0  0  0  0  0  0  0
    2.6781   -2.7488    0.0000 O   0  0  0  0  0  0  0  0  0  0  0  0
    1.4296   -0.4703    0.0000 C   0  0  0  0  0  0  0  0  0  0  0  0
    2.7450    0.2505    0.0000 C   0  0  0  0  0  0  0  0  0  0  0  0
    4.0270   -0.5283    0.0000 C   0  0  0  0  0  0  0  0  0  0  0  0
    5.3425    0.1925    0.0000 C   0  0  0  0  0  0  0  0  0  0  0  0
    6.6244   -0.5863    0.0000 C   0  0  0  0  0  0  0  0  0  0  0  0
    7.9399    0.1345    0.0000 C   0  0  0  0  0  0  0  0  0  0  0  0
    7.9734    1.6341    0.0000 C   0  0  0  0  0  0  0  0  0  0  0  0
    6.6914    2.4130    0.0000 C   0  0  0  0  0  0  0  0  0  0  0  0
    5.3760    1.6921    0.0000 C   0  0  0  0  0  0  0  0  0  0  0  0
    0.1476    0.3085    0.0000 N   0  0  0  0  0  0  0  0  0  0  0  0
   -1.1678   -0.4123    0.0000 C   0  0  0  0  0  0  0  0  0  0  0  0
   -1.0892   -1.9103    0.0000 C   0  0  0  0  0  0  0  0  0  0  0  0
   -2.2112   -2.9057    0.0000 C   0  0  0  0  0  0  0  0  0  0  0  0
   -3.6891   -2.6491    0.0000 C   0  0  0  0  0  0  0  0  0  0  0  0
   -4.4099   -1.3337    0.0000 C   0  0  0  0  0  0  0  0  0  0  0  0
   -5.9049   -1.2105    0.0000 S   0  0  0  0  0  0  0  0  0  0  0  0
   -6.2498    0.2493    0.0000 C   0  0  0  0  0  0  0  0  0  0  0  0
   -4.9680    1.0284    0.0000 C   0  0  0  0  0  0  0  0  0  0  0  0
   -4.8449    2.5233    0.0000 C   0  0  0  0  0  0  0  0  0  0  0  0
   -3.4887    3.1642    0.0000 O   0  0  0  0  0  0  0  0  0  0  0  0
   -6.0780    3.3774    0.0000 O   0  0  0  0  0  0  0  0  0  0  0  0
   -3.8309    0.0501    0.0000 N   0  0  0  0  0  0  0  0  0  0  0  0
   -2.3880    0.4601    0.0000 C   0  0  0  0  0  0  0  0  0  0  0  0
   -2.1314    1.9380    0.0000 O   0  0  0  0  0  0  0  0  0  0  0  0
  1  2  2  0
  2  3  1  0
  2  4  1  0
  4  5  1  0
  5  6  1  0
  6  7  1  0
  7  8  2  0
  8  9  1  0
  9 10  2  0
 10 11  1  0
 11 12  2  0
  4 13  1  0
 13 14  1  0
 14 15  1  0
 15 16  1  0
 16 17  1  0
 17 18  1  0
 18 19  1  0
 19 20  1  0
 20 21  1  0
 21 22  1  0
 22 23  2  0
 22 24  1  0
 21 25  1  0
 25 26  1  0
 26 27  2  0
 12  7  1  0
 26 14  1  0
 25 18  1  0
M  CHG  3   3  -1  13   1  24  -1
M  END
>  <pIC50_class>  (68) 
positive

$$$$

     RDKit          2D

 28 30  0  0  0  0  0  0  0  0999 V2000
   -4.2447    3.9935    0.0000 O   0  0  0  0  0  0  0  0  0  0  0  0
   -3.3644    2.7790    0.0000 C   0  0  0  0  0  0  0  0  0  0  0  0
   -1.8724    2.9342    0.0000 O   0  0  0  0  0  0  0  0  0  0  0  0
   -3.9760    1.4094    0.0000 C   0  0  0  0  0  0  0  0  0  0  0  0
   -5.4435    1.0991    0.0000 C   0  0  0  0  0  0  0  0  0  0  0  0
   -5.6019   -0.3925    0.0000 C   0  0  0  0  0  0  0  0  0  0  0  0
   -4.2323   -1.0041    0.0000 C   0  0  0  0  0  0  0  0  0  0  0  0
   -3.2274    0.1095    0.0000 N   0  0  0  0  0  0  0  0  0  0  0  0
   -1.7358   -0.0489    0.0000 C   0  0  0  0  0  0  0  0  0  0  0  0
   -0.8528    1.1637    0.0000 O   0  0  0  0  0  0  0  0  0  0  0  0
   -1.1271   -1.4199    0.0000 C   0  0  0  0  0  0  0  0  0  0  0  0
    0.3645   -1.5783    0.0000 P   0  0  0  0  0  0  0  0  0  0  0  0
    0.5229   -0.0867    0.0000 O   0  0  0  0  0  0  0  0  0  0  0  0
    0.2061   -3.0699    0.0000 O   0  0  0  0  0  0  0  0  0  0  0  0
    1.8561   -1.7367    0.0000 C   0  0  0  0  0  0  0  0  0  0  0  0
    2.7391   -0.5241    0.0000 C   0  0  0  0  0  0  0  0  0  0  0  0
    4.2307   -0.6825    0.0000 C   0  0  0  0  0  0  0  0  0  0  0  0
    5.1137    0.5300    0.0000 C   0  0  0  0  0  0  0  0  0  0  0  0
    6.6053    0.3716    0.0000 C   0  0  0  0  0  0  0  0  0  0  0  0
    7.2139   -0.9993    0.0000 C   0  0  0  0  0  0  0  0  0  0  0  0
    8.7055   -1.1577    0.0000 C   0  0  0  0  0  0  0  0  0  0  0  0
    9.5885    0.0548    0.0000 C   0  0  0  0  0  0  0  0  0  0  0  0
    8.9799    1.4258    0.0000 C   0  0  0  0  0  0  0  0  0  0  0  0
    7.4883    1.5842    0.0000 C   0  0  0  0  0  0  0  0  0  0  0  0
   -5.7603   -1.8842    0.0000 S   0  0  0  0  0  0  0  0  0  0  0  0
   -7.2279   -2.1944    0.0000 C   0  0  0  0  0  0  0  0  0  0  0  0
   -7.9765   -0.8946    0.0000 C   0  0  0  0  0  0  0  0  0  0  0  0
   -6.9716    0.2190    0.0000 S   0  0  0  0  0  0  0  0  0  0  0  0
  1  2  2  0
  2  3  1  0
  2  4  1  0
  4  5  1  0
  5  6  1  0
  6  7  1  0
  7  8  1  0
  8  9  1  0
  9 10  2  0
  9 11  1  0
 11 12  1  0
 12 13  2  0
 12 14  1  0
 12 15  1  0
 15 16  1  0
 16 17  1  0
 17 18  1  0
 18 19  1  0
 19 20  2  0
 20 21  1  0
 21 22  2  0
 22 23  1  0
 23 24  2  0
  6 25  1  0
 25 26  1  0
 26 27  1  0
 27 28  1  0
  8  4  1  0
 24 19  1  0
 28  6  1  0
M  CHG  2   3  -1  14  -1
M  END
>  <pIC50_class>  (69) 
positive

$$$$

     RDKit          2D

 32 34  0  0  0  0  0  0  0  0999 V2000
    1.7045    2.5362    0.0000 O   0  0  0  0  0  0  0  0  0  0  0  0
    2.9067    1.6391    0.0000 C   0  0  0  0  0  0  0  0  0  0  0  0
    2.7309    0.1495    0.0000 N   0  0  0  0  0  0  0  0  0  0  0  0
    1.3530   -0.4431    0.0000 C   0  0  0  0  0  0  0  0  0  0  0  0
    1.1772   -1.9328    0.0000 C   0  0  0  0  0  0  0  0  0  0  0  0
    2.3794   -2.8299    0.0000 C   0  0  0  0  0  0  0  0  0  0  0  0
    2.2036   -4.3195    0.0000 C   0  0  0  0  0  0  0  0  0  0  0  0
    3.4058   -5.2166    0.0000 C   0  0  0  0  0  0  0  0  0  0  0  0
    4.7838   -4.6240    0.0000 C   0  0  0  0  0  0  0  0  0  0  0  0
    4.9596   -3.1343    0.0000 C   0  0  0  0  0  0  0  0  0  0  0  0
    3.7574   -2.2373    0.0000 C   0  0  0  0  0  0  0  0  0  0  0  0
    0.1508    0.4539    0.0000 C   0  0  0  0  0  0  0  0  0  0  0  0
   -1.2272   -0.1387    0.0000 P   0  0  0  0  0  0  0  0  0  0  0  0
   -0.6346   -1.5167    0.0000 O   0  0  0  0  0  0  0  0  0  0  0  0
   -1.8198    1.2393    0.0000 O   0  0  0  0  0  0  0  0  0  0  0  0
   -2.6052   -0.7313    0.0000 C   0  0  0  0  0  0  0  0  0  0  0  0
   -3.8074    0.1658    0.0000 C   0  0  0  0  0  0  0  0  0  0  0  0
   -3.6316    1.6554    0.0000 O   0  0  0  0  0  0  0  0  0  0  0  0
   -5.1854   -0.4268    0.0000 N   0  0  0  0  0  0  0  0  0  0  0  0
   -5.5159   -1.8900    0.0000 C   0  0  0  0  0  0  0  0  0  0  0  0
   -7.0095   -2.0278    0.0000 C   0  0  0  0  0  0  0  0  0  0  0  0
   -7.6021   -0.6498    0.0000 C   0  0  0  0  0  0  0  0  0  0  0  0
   -6.4747    0.3396    0.0000 C   0  0  0  0  0  0  0  0  0  0  0  0
   -6.6125    1.8333    0.0000 C   0  0  0  0  0  0  0  0  0  0  0  0
   -5.3879    2.6994    0.0000 O   0  0  0  0  0  0  0  0  0  0  0  0
   -7.9750    2.4608    0.0000 O   0  0  0  0  0  0  0  0  0  0  0  0
    4.2847    2.2317    0.0000 C   0  0  0  0  0  0  0  0  0  0  0  0
    5.4869    1.3347    0.0000 C   0  0  0  0  0  0  0  0  0  0  0  0
    6.8649    1.9273    0.0000 C   0  0  0  0  0  0  0  0  0  0  0  0
    7.0406    3.4170    0.0000 C   0  0  0  0  0  0  0  0  0  0  0  0
    5.8384    4.3140    0.0000 C   0  0  0  0  0  0  0  0  0  0  0  0
    4.4605    3.7214    0.0000 C   0  0  0  0  0  0  0  0  0  0  0  0
  1  2  2  0
  2  3  1  0
  3  4  1  0
  4  5  1  0
  5  6  1  0
  6  7  2  0
  7  8  1  0
  8  9  2  0
  9 10  1  0
 10 11  2  0
  4 12  1  0
 12 13  1  0
 13 14  2  0
 13 15  1  0
 13 16  1  0
 16 17  1  0
 17 18  2  0
 17 19  1  0
 19 20  1  0
 20 21  1  0
 21 22  1  0
 22 23  1  0
 23 24  1  0
 24 25  2  0
 24 26  1  0
  2 27  1  0
 27 28  2  0
 28 29  1  0
 29 30  2  0
 30 31  1  0
 31 32  2  0
 11  6  1  0
 23 19  1  0
 32 27  1  0
M  CHG  2  15  -1  26  -1
M  END
>  <pIC50_class>  (70) 
positive

$$$$

     RDKit          2D

 34 36  0  0  0  0  0  0  0  0999 V2000
   -2.1431    2.7792    0.0000 C   0  0  0  0  0  0  0  0  0  0  0  0
   -1.9011    1.2988    0.0000 C   0  0  0  0  0  0  0  0  0  0  0  0
   -0.4981    0.7682    0.0000 N   0  0  0  0  0  0  0  0  0  0  0  0
    0.6629    1.7180    0.0000 C   0  0  0  0  0  0  0  0  0  0  0  0
    0.4209    3.1983    0.0000 C   0  0  0  0  0  0  0  0  0  0  0  0
    1.5820    4.1481    0.0000 O   0  0  0  0  0  0  0  0  0  0  0  0
   -0.9821    3.7289    0.0000 O   0  0  0  0  0  0  0  0  0  0  0  0
    2.0660    1.1874    0.0000 C   0  0  0  0  0  0  0  0  0  0  0  0
    3.2270    2.1371    0.0000 C   0  0  0  0  0  0  0  0  0  0  0  0
    4.6300    1.6065    0.0000 C   0  0  0  0  0  0  0  0  0  0  0  0
    5.7910    2.5563    0.0000 C   0  0  0  0  0  0  0  0  0  0  0  0
    7.1940    2.0257    0.0000 C   0  0  0  0  0  0  0  0  0  0  0  0
    7.4360    0.5453    0.0000 C   0  0  0  0  0  0  0  0  0  0  0  0
    6.2750   -0.4044    0.0000 C   0  0  0  0  0  0  0  0  0  0  0  0
    4.8720    0.1262    0.0000 C   0  0  0  0  0  0  0  0  0  0  0  0
    2.3080   -0.2930    0.0000 N   0  0  0  0  0  0  0  0  0  0  0  0
    1.1469   -1.2427    0.0000 C   0  0  0  0  0  0  0  0  0  0  0  0
   -0.2561   -0.7121    0.0000 O   0  0  0  0  0  0  0  0  0  0  0  0
    1.3889   -2.7231    0.0000 C   0  0  0  0  0  0  0  0  0  0  0  0
    2.7919   -3.2537    0.0000 C   0  0  0  0  0  0  0  0  0  0  0  0
    3.0339   -4.7340    0.0000 C   0  0  0  0  0  0  0  0  0  0  0  0
    1.8729   -5.6838    0.0000 C   0  0  0  0  0  0  0  0  0  0  0  0
    0.4699   -5.1532    0.0000 C   0  0  0  0  0  0  0  0  0  0  0  0
    0.2279   -3.6728    0.0000 C   0  0  0  0  0  0  0  0  0  0  0  0
   -3.0621    0.3491    0.0000 C   0  0  0  0  0  0  0  0  0  0  0  0
   -2.8201   -1.1313    0.0000 O   0  0  0  0  0  0  0  0  0  0  0  0
   -4.4651    0.8797    0.0000 N   0  0  0  0  0  0  0  0  0  0  0  0
   -4.8606    2.3266    0.0000 C   0  0  0  0  0  0  0  0  0  0  0  0
   -6.3589    2.3977    0.0000 C   0  0  0  0  0  0  0  0  0  0  0  0
   -6.8895    0.9947    0.0000 C   0  0  0  0  0  0  0  0  0  0  0  0
   -5.7191    0.0565    0.0000 C   0  0  0  0  0  0  0  0  0  0  0  0
   -5.7902   -1.4418    0.0000 C   0  0  0  0  0  0  0  0  0  0  0  0
   -4.5281   -2.2525    0.0000 O   0  0  0  0  0  0  0  0  0  0  0  0
   -7.1233   -2.1294    0.0000 O   0  0  0  0  0  0  0  0  0  0  0  0
  1  2  1  0
  2  3  1  0
  3  4  1  0
  4  5  1  0
  5  6  2  0
  5  7  1  0
  4  8  1  0
  8  9  1  0
  9 10  1  0
 10 11  2  0
 11 12  1  0
 12 13  2  0
 13 14  1  0
 14 15  2  0
  8 16  1  0
 16 17  1  0
 17 18  2  0
 17 19  1  0
 19 20  2  0
 20 21  1  0
 21 22  2  0
 22 23  1  0
 23 24  2  0
  2 25  1  0
 25 26  2  0
 25 27  1  0
 27 28  1  0
 28 29  1  0
 29 30  1  0
 30 31  1  0
 31 32  1  0
 32 33  2  0
 32 34  1  0
 15 10  1  0
 24 19  1  0
 31 27  1  0
M  CHG  3   3   1   7  -1  34  -1
M  END
>  <pIC50_class>  (71) 
positive

$$$$

     RDKit          2D

 31 33  0  0  0  0  0  0  0  0999 V2000
   -0.3093    0.3655    0.0000 O   0  0  0  0  0  0  0  0  0  0  0  0
    1.0888    0.9091    0.0000 C   0  0  0  0  0  0  0  0  0  0  0  0
    2.2585   -0.0299    0.0000 N   0  0  0  0  0  0  0  0  0  0  0  0
    2.0303   -1.5124    0.0000 C   0  0  0  0  0  0  0  0  0  0  0  0
    3.2000   -2.4514    0.0000 C   0  0  0  0  0  0  0  0  0  0  0  0
    4.5981   -1.9078    0.0000 C   0  0  0  0  0  0  0  0  0  0  0  0
    5.7678   -2.8468    0.0000 C   0  0  0  0  0  0  0  0  0  0  0  0
    7.1659   -2.3032    0.0000 C   0  0  0  0  0  0  0  0  0  0  0  0
    7.3942   -0.8207    0.0000 C   0  0  0  0  0  0  0  0  0  0  0  0
    6.2244    0.1183    0.0000 C   0  0  0  0  0  0  0  0  0  0  0  0
    4.8264   -0.4253    0.0000 C   0  0  0  0  0  0  0  0  0  0  0  0
    0.6322   -2.0559    0.0000 C   0  0  0  0  0  0  0  0  0  0  0  0
    0.4039   -3.5385    0.0000 O   0  0  0  0  0  0  0  0  0  0  0  0
   -0.5375   -1.1170    0.0000 C   0  0  0  0  0  0  0  0  0  0  0  0
   -1.9356   -1.6605    0.0000 C   0  0  0  0  0  0  0  0  0  0  0  0
   -3.1054   -0.7216    0.0000 C   0  0  0  0  0  0  0  0  0  0  0  0
   -2.8771    0.7609    0.0000 O   0  0  0  0  0  0  0  0  0  0  0  0
   -4.5034   -1.2651    0.0000 N   0  0  0  0  0  0  0  0  0  0  0  0
   -4.8854   -2.7157    0.0000 C   0  0  0  0  0  0  0  0  0  0  0  0
   -6.3830   -2.8006    0.0000 C   0  0  0  0  0  0  0  0  0  0  0  0
   -6.9266   -1.4026    0.0000 C   0  0  0  0  0  0  0  0  0  0  0  0
   -5.7649   -0.4536    0.0000 C   0  0  0  0  0  0  0  0  0  0  0  0
   -5.8499    1.0440    0.0000 C   0  0  0  0  0  0  0  0  0  0  0  0
   -4.5954    1.8664    0.0000 O   0  0  0  0  0  0  0  0  0  0  0  0
   -7.1893    1.7192    0.0000 O   0  0  0  0  0  0  0  0  0  0  0  0
    1.3171    2.3916    0.0000 C   0  0  0  0  0  0  0  0  0  0  0  0
    2.7151    2.9352    0.0000 C   0  0  0  0  0  0  0  0  0  0  0  0
    2.9434    4.4177    0.0000 C   0  0  0  0  0  0  0  0  0  0  0  0
    1.7736    5.3567    0.0000 C   0  0  0  0  0  0  0  0  0  0  0  0
    0.3756    4.8131    0.0000 C   0  0  0  0  0  0  0  0  0  0  0  0
    0.1473    3.3306    0.0000 C   0  0  0  0  0  0  0  0  0  0  0  0
  1  2  2  0
  2  3  1  0
  3  4  1  0
  4  5  1  0
  5  6  1  0
  6  7  2  0
  7  8  1  0
  8  9  2  0
  9 10  1  0
 10 11  2  0
  4 12  1  0
 12 13  2  0
 12 14  1  0
 14 15  1  0
 15 16  1  0
 16 17  2  0
 16 18  1  0
 18 19  1  0
 19 20  1  0
 20 21  1  0
 21 22  1  0
 22 23  1  0
 23 24  2  0
 23 25  1  0
  2 26  1  0
 26 27  2  0
 27 28  1  0
 28 29  2  0
 29 30  1  0
 30 31  2  0
 11  6  1  0
 22 18  1  0
 31 26  1  0
M  CHG  1  25  -1
M  END
>  <pIC50_class>  (72) 
negative

$$$$

     RDKit          2D

 32 34  0  0  0  0  0  0  0  0999 V2000
   -2.3821    2.7097    0.0000 C   0  0  0  0  0  0  0  0  0  0  0  0
   -2.0347    1.2505    0.0000 C   0  0  0  0  0  0  0  0  0  0  0  0
   -0.5972    0.8218    0.0000 C   0  0  0  0  0  0  0  0  0  0  0  0
   -0.2497   -0.6374    0.0000 C   0  0  0  0  0  0  0  0  0  0  0  0
   -1.3397   -1.6679    0.0000 O   0  0  0  0  0  0  0  0  0  0  0  0
    1.1877   -1.0661    0.0000 C   0  0  0  0  0  0  0  0  0  0  0  0
    1.5352   -2.5253    0.0000 C   0  0  0  0  0  0  0  0  0  0  0  0
    2.9726   -2.9539    0.0000 C   0  0  0  0  0  0  0  0  0  0  0  0
    3.3201   -4.4131    0.0000 C   0  0  0  0  0  0  0  0  0  0  0  0
    4.7576   -4.8418    0.0000 C   0  0  0  0  0  0  0  0  0  0  0  0
    5.8475   -3.8113    0.0000 C   0  0  0  0  0  0  0  0  0  0  0  0
    5.5000   -2.3521    0.0000 C   0  0  0  0  0  0  0  0  0  0  0  0
    4.0626   -1.9234    0.0000 C   0  0  0  0  0  0  0  0  0  0  0  0
    2.2777   -0.0355    0.0000 N   0  0  0  0  0  0  0  0  0  0  0  0
    1.9302    1.4236    0.0000 C   0  0  0  0  0  0  0  0  0  0  0  0
    0.4927    1.8523    0.0000 O   0  0  0  0  0  0  0  0  0  0  0  0
    3.0202    2.4542    0.0000 C   0  0  0  0  0  0  0  0  0  0  0  0
    4.4576    2.0255    0.0000 C   0  0  0  0  0  0  0  0  0  0  0  0
    5.5476    3.0560    0.0000 C   0  0  0  0  0  0  0  0  0  0  0  0
    5.2001    4.5152    0.0000 C   0  0  0  0  0  0  0  0  0  0  0  0
    3.7626    4.9439    0.0000 C   0  0  0  0  0  0  0  0  0  0  0  0
    2.6727    3.9134    0.0000 C   0  0  0  0  0  0  0  0  0  0  0  0
   -3.1246    0.2199    0.0000 C   0  0  0  0  0  0  0  0  0  0  0  0
   -2.7771   -1.2393    0.0000 O   0  0  0  0  0  0  0  0  0  0  0  0
   -4.5621    0.6486    0.0000 N   0  0  0  0  0  0  0  0  0  0  0  0
   -5.0602    2.0635    0.0000 C   0  0  0  0  0  0  0  0  0  0  0  0
   -6.5597    2.0270    0.0000 C   0  0  0  0  0  0  0  0  0  0  0  0
   -6.9884    0.5896    0.0000 C   0  0  0  0  0  0  0  0  0  0  0  0
   -5.7538   -0.2623    0.0000 C   0  0  0  0  0  0  0  0  0  0  0  0
   -5.7173   -1.7619    0.0000 C   0  0  0  0  0  0  0  0  0  0  0  0
   -4.4004   -2.4801    0.0000 O   0  0  0  0  0  0  0  0  0  0  0  0
   -6.9977   -2.5433    0.0000 O   0  0  0  0  0  0  0  0  0  0  0  0
  1  2  1  0
  2  3  1  0
  3  4  1  0
  4  5  2  0
  4  6  1  0
  6  7  1  0
  7  8  1  0
  8  9  2  0
  9 10  1  0
 10 11  2  0
 11 12  1  0
 12 13  2  0
  6 14  1  0
 14 15  1  0
 15 16  2  0
 15 17  1  0
 17 18  2  0
 18 19  1  0
 19 20  2  0
 20 21  1  0
 21 22  2  0
  2 23  1  0
 23 24  2  0
 23 25  1  0
 25 26  1  0
 26 27  1  0
 27 28  1  0
 28 29  1  0
 29 30  1  0
 30 31  2  0
 30 32  1  0
 13  8  1  0
 22 17  1  0
 29 25  1  0
M  CHG  1  32  -1
M  END
>  <pIC50_class>  (73) 
positive

$$$$

     RDKit          2D

 30 32  0  0  0  0  0  0  0  0999 V2000
   -2.2833    2.4234    0.0000 C   0  0  0  0  0  0  0  0  0  0  0  0
   -1.6056    1.0852    0.0000 C   0  0  0  0  0  0  0  0  0  0  0  0
   -0.1079    1.0030    0.0000 N   0  0  0  0  0  0  0  0  0  0  0  0
    0.7122    2.2589    0.0000 C   0  0  0  0  0  0  0  0  0  0  0  0
    0.0346    3.5972    0.0000 C   0  0  0  0  0  0  0  0  0  0  0  0
    0.8547    4.8531    0.0000 O   0  0  0  0  0  0  0  0  0  0  0  0
   -1.4632    3.6794    0.0000 O   0  0  0  0  0  0  0  0  0  0  0  0
    2.2100    2.1767    0.0000 C   0  0  0  0  0  0  0  0  0  0  0  0
    3.1569    3.3401    0.0000 C   0  0  0  0  0  0  0  0  0  0  0  0
    4.5559    2.7990    0.0000 C   0  0  0  0  0  0  0  0  0  0  0  0
    4.4736    1.3013    0.0000 C   0  0  0  0  0  0  0  0  0  0  0  0
    3.0238    0.9167    0.0000 N   0  0  0  0  0  0  0  0  0  0  0  0
    2.4827   -0.4824    0.0000 C   0  0  0  0  0  0  0  0  0  0  0  0
    1.0006   -0.7133    0.0000 O   0  0  0  0  0  0  0  0  0  0  0  0
    3.4238   -1.6504    0.0000 C   0  0  0  0  0  0  0  0  0  0  0  0
    2.8827   -3.0495    0.0000 C   0  0  0  0  0  0  0  0  0  0  0  0
    3.8238   -4.2175    0.0000 C   0  0  0  0  0  0  0  0  0  0  0  0
    5.3059   -3.9866    0.0000 C   0  0  0  0  0  0  0  0  0  0  0  0
    5.8470   -2.5876    0.0000 C   0  0  0  0  0  0  0  0  0  0  0  0
    4.9059   -1.4195    0.0000 C   0  0  0  0  0  0  0  0  0  0  0  0
   -2.4257   -0.1707    0.0000 C   0  0  0  0  0  0  0  0  0  0  0  0
   -1.7481   -1.5089    0.0000 O   0  0  0  0  0  0  0  0  0  0  0  0
   -3.9235   -0.0885    0.0000 N   0  0  0  0  0  0  0  0  0  0  0  0
   -4.7373    1.1716    0.0000 C   0  0  0  0  0  0  0  0  0  0  0  0
   -6.1871    0.7870    0.0000 C   0  0  0  0  0  0  0  0  0  0  0  0
   -6.2694   -0.7108    0.0000 C   0  0  0  0  0  0  0  0  0  0  0  0
   -4.8704   -1.2518    0.0000 C   0  0  0  0  0  0  0  0  0  0  0  0
   -4.4858   -2.7017    0.0000 C   0  0  0  0  0  0  0  0  0  0  0  0
   -3.0378   -3.0935    0.0000 O   0  0  0  0  0  0  0  0  0  0  0  0
   -5.5491   -3.7597    0.0000 O   0  0  0  0  0  0  0  0  0  0  0  0
  1  2  1  0
  2  3  1  0
  3  4  1  0
  4  5  1  0
  5  6  2  0
  5  7  1  0
  4  8  1  0
  8  9  1  0
  9 10  1  0
 10 11  1  0
 11 12  1  0
 12 13  1  0
 13 14  2  0
 13 15  1  0
 15 16  2  0
 16 17  1  0
 17 18  2  0
 18 19  1  0
 19 20  2  0
  2 21  1  0
 21 22  2  0
 21 23  1  0
 23 24  1  0
 24 25  1  0
 25 26  1  0
 26 27  1  0
 27 28  1  0
 28 29  2  0
 28 30  1  0
 12  8  1  0
 20 15  1  0
 27 23  1  0
M  CHG  3   3   1   7  -1  30  -1
M  END
>  <pIC50_class>  (74) 
positive

$$$$

     RDKit          2D

 24 25  0  0  0  0  0  0  0  0999 V2000
   -3.4314    2.8101    0.0000 C   0  0  0  0  0  0  0  0  0  0  0  0
   -2.0631    2.1954    0.0000 C   0  0  0  0  0  0  0  0  0  0  0  0
   -0.8467    3.0730    0.0000 N   0  0  0  0  0  0  0  0  0  0  0  0
    0.5216    2.4583    0.0000 P   0  0  0  0  0  0  0  0  0  0  0  0
    1.1363    3.8266    0.0000 O   0  0  0  0  0  0  0  0  0  0  0  0
   -0.0931    1.0901    0.0000 O   0  0  0  0  0  0  0  0  0  0  0  0
    1.8899    1.8436    0.0000 C   0  0  0  0  0  0  0  0  0  0  0  0
    2.0416    0.3513    0.0000 C   0  0  0  0  0  0  0  0  0  0  0  0
    3.4099   -0.2634    0.0000 C   0  0  0  0  0  0  0  0  0  0  0  0
    3.5617   -1.7557    0.0000 C   0  0  0  0  0  0  0  0  0  0  0  0
    4.9299   -2.3704    0.0000 C   0  0  0  0  0  0  0  0  0  0  0  0
    6.1464   -1.4928    0.0000 C   0  0  0  0  0  0  0  0  0  0  0  0
    5.9946   -0.0005    0.0000 C   0  0  0  0  0  0  0  0  0  0  0  0
    4.6264    0.6142    0.0000 C   0  0  0  0  0  0  0  0  0  0  0  0
   -1.9114    0.7031    0.0000 C   0  0  0  0  0  0  0  0  0  0  0  0
   -0.5431    0.0884    0.0000 O   0  0  0  0  0  0  0  0  0  0  0  0
   -3.1278   -0.1745    0.0000 N   0  0  0  0  0  0  0  0  0  0  0  0
   -4.5529    0.2938    0.0000 C   0  0  0  0  0  0  0  0  0  0  0  0
   -5.4386   -0.9167    0.0000 C   0  0  0  0  0  0  0  0  0  0  0  0
   -4.5610   -2.1332    0.0000 C   0  0  0  0  0  0  0  0  0  0  0  0
   -3.1329   -1.6745    0.0000 C   0  0  0  0  0  0  0  0  0  0  0  0
   -1.9223   -2.5602    0.0000 C   0  0  0  0  0  0  0  0  0  0  0  0
   -2.0841   -4.0515    0.0000 O   0  0  0  0  0  0  0  0  0  0  0  0
   -0.5500   -1.9547    0.0000 O   0  0  0  0  0  0  0  0  0  0  0  0
  1  2  1  0
  2  3  1  0
  3  4  1  0
  4  5  2  0
  4  6  1  0
  4  7  1  0
  7  8  1  0
  8  9  1  0
  9 10  2  0
 10 11  1  0
 11 12  2  0
 12 13  1  0
 13 14  2  0
  2 15  1  0
 15 16  2  0
 15 17  1  0
 17 18  1  0
 18 19  1  0
 19 20  1  0
 20 21  1  0
 21 22  1  0
 22 23  2  0
 22 24  1  0
 14  9  1  0
 21 17  1  0
M  CHG  2   6  -1  24  -1
M  END
>  <pIC50_class>  (75) 
positive

$$$$

     RDKit          2D

 10  9  0  0  0  0  0  0  0  0999 V2000
    3.1164    1.6525    0.0000 O   0  0  0  0  0  0  0  0  0  0  0  0
    3.0072    0.1565    0.0000 C   0  0  0  0  0  0  0  0  0  0  0  0
    4.2481   -0.6861    0.0000 O   0  0  0  0  0  0  0  0  0  0  0  0
    1.6570   -0.4970    0.0000 C   0  0  0  0  0  0  0  0  0  0  0  0
    0.4160    0.3456    0.0000 N   0  0  0  0  0  0  0  0  0  0  0  0
   -0.9342   -0.3078    0.0000 C   0  0  0  0  0  0  0  0  0  0  0  0
   -1.0434   -1.8038    0.0000 O   0  0  0  0  0  0  0  0  0  0  0  0
   -2.1752    0.5348    0.0000 C   0  0  0  0  0  0  0  0  0  0  0  0
   -3.5254   -0.1186    0.0000 C   0  0  0  0  0  0  0  0  0  0  0  0
   -4.7664    0.7239    0.0000 S   0  0  0  0  0  0  0  0  0  0  0  0
  1  2  2  0
  2  3  1  0
  2  4  1  0
  4  5  1  0
  5  6  1  0
  6  7  2  0
  6  8  1  0
  8  9  1  0
  9 10  1  0
M  CHG  1   3  -1
M  END
>  <pIC50_class>  (76) 
negative

$$$$

     RDKit          2D

 11 10  0  0  0  0  0  0  0  0999 V2000
   -2.8423    1.8525    0.0000 C   0  0  0  0  0  0  0  0  0  0  0  0
   -1.7474    0.8273    0.0000 C   0  0  0  0  0  0  0  0  0  0  0  0
   -0.3120    1.2629    0.0000 N   0  0  0  0  0  0  0  0  0  0  0  0
    0.7829    0.2376    0.0000 C   0  0  0  0  0  0  0  0  0  0  0  0
    0.4425   -1.2233    0.0000 O   0  0  0  0  0  0  0  0  0  0  0  0
    2.2183    0.6732    0.0000 C   0  0  0  0  0  0  0  0  0  0  0  0
    3.3132   -0.3521    0.0000 C   0  0  0  0  0  0  0  0  0  0  0  0
    4.7486    0.0835    0.0000 S   0  0  0  0  0  0  0  0  0  0  0  0
   -2.0878   -0.6336    0.0000 C   0  0  0  0  0  0  0  0  0  0  0  0
   -3.5232   -1.0692    0.0000 O   0  0  0  0  0  0  0  0  0  0  0  0
   -0.9929   -1.6589    0.0000 O   0  0  0  0  0  0  0  0  0  0  0  0
  1  2  1  0
  2  3  1  0
  3  4  1  0
  4  5  2  0
  4  6  1  0
  6  7  1  0
  7  8  1  0
  2  9  1  0
  9 10  2  0
  9 11  1  0
M  CHG  1  11  -1
M  END
>  <pIC50_class>  (77) 
negative

$$$$

     RDKit          2D

 13 12  0  0  0  0  0  0  0  0999 V2000
   -2.4589    2.5642    0.0000 C   0  0  0  0  0  0  0  0  0  0  0  0
   -2.5426    1.0665    0.0000 C   0  0  0  0  0  0  0  0  0  0  0  0
   -3.8814    0.3901    0.0000 C   0  0  0  0  0  0  0  0  0  0  0  0
   -1.2874    0.2452    0.0000 C   0  0  0  0  0  0  0  0  0  0  0  0
    0.0515    0.9216    0.0000 N   0  0  0  0  0  0  0  0  0  0  0  0
    1.3067    0.1004    0.0000 C   0  0  0  0  0  0  0  0  0  0  0  0
    1.2230   -1.3973    0.0000 O   0  0  0  0  0  0  0  0  0  0  0  0
    2.6455    0.7768    0.0000 C   0  0  0  0  0  0  0  0  0  0  0  0
    3.9007   -0.0445    0.0000 C   0  0  0  0  0  0  0  0  0  0  0  0
    5.2395    0.6320    0.0000 S   0  0  0  0  0  0  0  0  0  0  0  0
   -1.3710   -1.2524    0.0000 C   0  0  0  0  0  0  0  0  0  0  0  0
   -2.7098   -1.9288    0.0000 O   0  0  0  0  0  0  0  0  0  0  0  0
   -0.1158   -2.0737    0.0000 O   0  0  0  0  0  0  0  0  0  0  0  0
  1  2  1  0
  2  3  1  0
  2  4  1  0
  4  5  1  0
  5  6  1  0
  6  7  2  0
  6  8  1  0
  8  9  1  0
  9 10  1  0
  4 11  1  0
 11 12  2  0
 11 13  1  0
M  CHG  1  13  -1
M  END
>  <pIC50_class>  (78) 
negative

$$$$

     RDKit          2D

 17 17  0  0  0  0  0  0  0  0999 V2000
   -3.0034   -0.9437    0.0000 O   0  0  0  0  0  0  0  0  0  0  0  0
   -2.1022    0.2554    0.0000 C   0  0  0  0  0  0  0  0  0  0  0  0
   -2.6901    1.6354    0.0000 C   0  0  0  0  0  0  0  0  0  0  0  0
   -4.1791    1.8163    0.0000 C   0  0  0  0  0  0  0  0  0  0  0  0
   -4.7670    3.1963    0.0000 S   0  0  0  0  0  0  0  0  0  0  0  0
   -0.6131    0.0745    0.0000 N   0  0  0  0  0  0  0  0  0  0  0  0
   -0.0253   -1.3055    0.0000 C   0  0  0  0  0  0  0  0  0  0  0  0
    1.4638   -1.4864    0.0000 C   0  0  0  0  0  0  0  0  0  0  0  0
    2.3650   -0.2873    0.0000 C   0  0  0  0  0  0  0  0  0  0  0  0
    1.7771    1.0927    0.0000 C   0  0  0  0  0  0  0  0  0  0  0  0
    2.6783    2.2918    0.0000 C   0  0  0  0  0  0  0  0  0  0  0  0
    4.1673    2.1109    0.0000 C   0  0  0  0  0  0  0  0  0  0  0  0
    4.7552    0.7309    0.0000 C   0  0  0  0  0  0  0  0  0  0  0  0
    3.8540   -0.4682    0.0000 C   0  0  0  0  0  0  0  0  0  0  0  0
   -0.9265   -2.5046    0.0000 C   0  0  0  0  0  0  0  0  0  0  0  0
   -0.3386   -3.8846    0.0000 O   0  0  0  0  0  0  0  0  0  0  0  0
   -2.4155   -2.3237    0.0000 O   0  0  0  0  0  0  0  0  0  0  0  0
  1  2  2  0
  2  3  1  0
  3  4  1  0
  4  5  1  0
  2  6  1  0
  6  7  1  0
  7  8  1  0
  8  9  1  0
  9 10  2  0
 10 11  1  0
 11 12  2  0
 12 13  1  0
 13 14  2  0
  7 15  1  0
 15 16  2  0
 15 17  1  0
 14  9  1  0
M  CHG  1  17  -1
M  END
>  <pIC50_class>  (79) 
negative

$$$$

     RDKit          2D

 13 13  0  0  0  0  0  0  0  0999 V2000
    3.5501   -1.5460    0.0000 O   0  0  0  0  0  0  0  0  0  0  0  0
    2.0831   -1.2328    0.0000 C   0  0  0  0  0  0  0  0  0  0  0  0
    1.0784   -2.3466    0.0000 O   0  0  0  0  0  0  0  0  0  0  0  0
    1.6209    0.1942    0.0000 C   0  0  0  0  0  0  0  0  0  0  0  0
    2.5037    1.4069    0.0000 C   0  0  0  0  0  0  0  0  0  0  0  0
    1.6231    2.6213    0.0000 C   0  0  0  0  0  0  0  0  0  0  0  0
    0.1961    2.1591    0.0000 C   0  0  0  0  0  0  0  0  0  0  0  0
    0.1948    0.6591    0.0000 N   0  0  0  0  0  0  0  0  0  0  0  0
   -1.0196   -0.2215    0.0000 C   0  0  0  0  0  0  0  0  0  0  0  0
   -0.8642   -1.7134    0.0000 O   0  0  0  0  0  0  0  0  0  0  0  0
   -2.3893    0.3899    0.0000 C   0  0  0  0  0  0  0  0  0  0  0  0
   -3.6037   -0.4907    0.0000 C   0  0  0  0  0  0  0  0  0  0  0  0
   -4.9734    0.1207    0.0000 S   0  0  0  0  0  0  0  0  0  0  0  0
  1  2  2  0
  2  3  1  0
  2  4  1  0
  4  5  1  0
  5  6  1  0
  6  7  1  0
  7  8  1  0
  8  9  1  0
  9 10  2  0
  9 11  1  0
 11 12  1  0
 12 13  1  0
  8  4  1  0
M  CHG  1   3  -1
M  END
>  <pIC50_class>  (80) 
negative

$$$$

     RDKit          2D

 13 13  0  0  0  0  0  0  0  0999 V2000
    3.5501   -1.5460    0.0000 O   0  0  0  0  0  0  0  0  0  0  0  0
    2.0831   -1.2328    0.0000 C   0  0  0  0  0  0  0  0  0  0  0  0
    1.0784   -2.3466    0.0000 O   0  0  0  0  0  0  0  0  0  0  0  0
    1.6209    0.1942    0.0000 C   0  0  0  0  0  0  0  0  0  0  0  0
    2.5037    1.4069    0.0000 C   0  0  0  0  0  0  0  0  0  0  0  0
    1.6231    2.6213    0.0000 C   0  0  0  0  0  0  0  0  0  0  0  0
    0.1961    2.1591    0.0000 C   0  0  0  0  0  0  0  0  0  0  0  0
    0.1948    0.6591    0.0000 N   0  0  0  0  0  0  0  0  0  0  0  0
   -1.0196   -0.2215    0.0000 C   0  0  0  0  0  0  0  0  0  0  0  0
   -0.8642   -1.7134    0.0000 O   0  0  0  0  0  0  0  0  0  0  0  0
   -2.3893    0.3899    0.0000 C   0  0  0  0  0  0  0  0  0  0  0  0
   -3.6037   -0.4907    0.0000 C   0  0  0  0  0  0  0  0  0  0  0  0
   -4.9734    0.1207    0.0000 S   0  0  0  0  0  0  0  0  0  0  0  0
  1  2  2  0
  2  3  1  0
  2  4  1  0
  4  5  2  0
  5  6  1  0
  6  7  1  0
  7  8  1  0
  8  9  1  0
  9 10  2  0
  9 11  1  0
 11 12  1  0
 12 13  1  0
  8  4  1  0
M  CHG  1   3  -1
M  END
>  <pIC50_class>  (81) 
negative

$$$$

     RDKit          2D

 11 10  0  0  0  0  0  0  0  0999 V2000
    3.7163   -1.4321    0.0000 O   0  0  0  0  0  0  0  0  0  0  0  0
    3.6609    0.0669    0.0000 C   0  0  0  0  0  0  0  0  0  0  0  0
    4.9314    0.8643    0.0000 O   0  0  0  0  0  0  0  0  0  0  0  0
    2.3351    0.7685    0.0000 C   0  0  0  0  0  0  0  0  0  0  0  0
    1.0646   -0.0289    0.0000 C   0  0  0  0  0  0  0  0  0  0  0  0
   -0.2612    0.6726    0.0000 N   0  0  0  0  0  0  0  0  0  0  0  0
   -1.5317   -0.1248    0.0000 C   0  0  0  0  0  0  0  0  0  0  0  0
   -1.4763   -1.6237    0.0000 O   0  0  0  0  0  0  0  0  0  0  0  0
   -2.8575    0.5768    0.0000 C   0  0  0  0  0  0  0  0  0  0  0  0
   -4.1280   -0.2206    0.0000 C   0  0  0  0  0  0  0  0  0  0  0  0
   -5.4538    0.4810    0.0000 S   0  0  0  0  0  0  0  0  0  0  0  0
  1  2  2  0
  2  3  1  0
  2  4  1  0
  4  5  1  0
  5  6  1  0
  6  7  1  0
  7  8  2  0
  7  9  1  0
  9 10  1  0
 10 11  1  0
M  CHG  1   3  -1
M  END
>  <pIC50_class>  (82) 
negative

$$$$

     RDKit          2D

 12 11  0  0  0  0  0  0  0  0999 V2000
   -3.8971    1.7500    0.0000 O   0  0  0  0  0  0  0  0  0  0  0  0
   -3.8971    0.2500    0.0000 C   0  0  0  0  0  0  0  0  0  0  0  0
   -5.1962   -0.5000    0.0000 O   0  0  0  0  0  0  0  0  0  0  0  0
   -2.5981   -0.5000    0.0000 C   0  0  0  0  0  0  0  0  0  0  0  0
   -1.2990    0.2500    0.0000 C   0  0  0  0  0  0  0  0  0  0  0  0
    0.0000   -0.5000    0.0000 C   0  0  0  0  0  0  0  0  0  0  0  0
    0.0000   -2.0000    0.0000 O   0  0  0  0  0  0  0  0  0  0  0  0
    1.2990    0.2500    0.0000 N   0  0  0  0  0  0  0  0  0  0  0  0
    2.5981   -0.5000    0.0000 C   0  0  0  0  0  0  0  0  0  0  0  0
    3.8971    0.2500    0.0000 C   0  0  0  0  0  0  0  0  0  0  0  0
    3.8971    1.7500    0.0000 O   0  0  0  0  0  0  0  0  0  0  0  0
    5.1962   -0.5000    0.0000 O   0  0  0  0  0  0  0  0  0  0  0  0
  1  2  2  0
  2  3  1  0
  2  4  1  0
  4  5  1  0
  5  6  1  0
  6  7  2  0
  6  8  1  0
  8  9  1  0
  9 10  1  0
 10 11  2  0
 10 12  1  0
M  CHG  2   3  -1  12  -1
M  END
>  <pIC50_class>  (83) 
negative

$$$$

     RDKit          2D

 13 12  0  0  0  0  0  0  0  0999 V2000
   -3.6504    1.8715    0.0000 C   0  0  0  0  0  0  0  0  0  0  0  0
   -2.5740    0.8269    0.0000 C   0  0  0  0  0  0  0  0  0  0  0  0
   -1.1311    1.2369    0.0000 N   0  0  0  0  0  0  0  0  0  0  0  0
   -0.0546    0.1922    0.0000 C   0  0  0  0  0  0  0  0  0  0  0  0
   -0.4211   -1.2623    0.0000 O   0  0  0  0  0  0  0  0  0  0  0  0
    1.3883    0.6022    0.0000 C   0  0  0  0  0  0  0  0  0  0  0  0
    2.4647   -0.4424    0.0000 C   0  0  0  0  0  0  0  0  0  0  0  0
    3.9076   -0.0325    0.0000 C   0  0  0  0  0  0  0  0  0  0  0  0
    4.2741    1.4221    0.0000 O   0  0  0  0  0  0  0  0  0  0  0  0
    4.9841   -1.0771    0.0000 O   0  0  0  0  0  0  0  0  0  0  0  0
   -2.9404   -0.6276    0.0000 C   0  0  0  0  0  0  0  0  0  0  0  0
   -4.3833   -1.0376    0.0000 O   0  0  0  0  0  0  0  0  0  0  0  0
   -1.8639   -1.6722    0.0000 O   0  0  0  0  0  0  0  0  0  0  0  0
  1  2  1  0
  2  3  1  0
  3  4  1  0
  4  5  2  0
  4  6  1  0
  6  7  1  0
  7  8  1  0
  8  9  2  0
  8 10  1  0
  2 11  1  0
 11 12  2  0
 11 13  1  0
M  CHG  2  10  -1  13  -1
M  END
>  <pIC50_class>  (84) 
negative

$$$$

     RDKit          2D

 18 18  0  0  0  0  0  0  0  0999 V2000
   -2.2992   -2.2466    0.0000 C   0  0  0  0  0  0  0  0  0  0  0  0
   -1.6745   -0.8828    0.0000 N   0  0  0  0  0  0  0  0  0  0  0  0
   -2.5432    0.3400    0.0000 C   0  0  0  0  0  0  0  0  0  0  0  0
   -1.9185    1.7038    0.0000 O   0  0  0  0  0  0  0  0  0  0  0  0
   -4.0365    0.1992    0.0000 C   0  0  0  0  0  0  0  0  0  0  0  0
   -4.9052    1.4221    0.0000 C   0  0  0  0  0  0  0  0  0  0  0  0
   -6.3986    1.2812    0.0000 S   0  0  0  0  0  0  0  0  0  0  0  0
   -0.1811   -0.7420    0.0000 C   0  0  0  0  0  0  0  0  0  0  0  0
    0.4436    0.6218    0.0000 C   0  0  0  0  0  0  0  0  0  0  0  0
    1.9369    0.7626    0.0000 C   0  0  0  0  0  0  0  0  0  0  0  0
    2.8056   -0.4603    0.0000 C   0  0  0  0  0  0  0  0  0  0  0  0
    4.2990   -0.3194    0.0000 C   0  0  0  0  0  0  0  0  0  0  0  0
    4.9237    1.0443    0.0000 C   0  0  0  0  0  0  0  0  0  0  0  0
    4.0550    2.2672    0.0000 C   0  0  0  0  0  0  0  0  0  0  0  0
    2.5616    2.1263    0.0000 C   0  0  0  0  0  0  0  0  0  0  0  0
    0.6875   -1.9648    0.0000 C   0  0  0  0  0  0  0  0  0  0  0  0
    2.1809   -1.8240    0.0000 O   0  0  0  0  0  0  0  0  0  0  0  0
    0.0628   -3.3286    0.0000 O   0  0  0  0  0  0  0  0  0  0  0  0
  1  2  1  0
  2  3  1  0
  3  4  2  0
  3  5  1  0
  5  6  1  0
  6  7  1  0
  2  8  1  0
  8  9  1  0
  9 10  1  0
 10 11  2  0
 11 12  1  0
 12 13  2  0
 13 14  1  0
 14 15  2  0
  8 16  1  0
 16 17  2  0
 16 18  1  0
 15 10  1  0
M  CHG  1  18  -1
M  END
>  <pIC50_class>  (85) 
negative

$$$$

     RDKit          2D

 11 10  0  0  0  0  0  0  0  0999 V2000
   -2.5518    1.8837    0.0000 C   0  0  0  0  0  0  0  0  0  0  0  0
   -1.4911    0.8231    0.0000 N   0  0  0  0  0  0  0  0  0  0  0  0
   -1.8793   -0.6258    0.0000 C   0  0  0  0  0  0  0  0  0  0  0  0
   -0.8187   -1.6865    0.0000 C   0  0  0  0  0  0  0  0  0  0  0  0
    0.6302   -1.2983    0.0000 O   0  0  0  0  0  0  0  0  0  0  0  0
   -1.2069   -3.1354    0.0000 O   0  0  0  0  0  0  0  0  0  0  0  0
   -0.0422    1.2113    0.0000 C   0  0  0  0  0  0  0  0  0  0  0  0
    0.3460    2.6602    0.0000 O   0  0  0  0  0  0  0  0  0  0  0  0
    1.0184    0.1506    0.0000 C   0  0  0  0  0  0  0  0  0  0  0  0
    2.4673    0.5389    0.0000 C   0  0  0  0  0  0  0  0  0  0  0  0
    3.5280   -0.5218    0.0000 S   0  0  0  0  0  0  0  0  0  0  0  0
  1  2  1  0
  2  3  1  0
  3  4  1  0
  4  5  2  0
  4  6  1  0
  2  7  1  0
  7  8  2  0
  7  9  1  0
  9 10  1  0
 10 11  1  0
M  CHG  1   6  -1
M  END
>  <pIC50_class>  (86) 
negative

$$$$

     RDKit          2D

 14 14  0  0  0  0  0  0  0  0999 V2000
    3.0742   -1.8476    0.0000 C   0  0  0  0  0  0  0  0  0  0  0  0
    2.1958   -0.6317    0.0000 C   0  0  0  0  0  0  0  0  0  0  0  0
    2.8096    0.7369    0.0000 C   0  0  0  0  0  0  0  0  0  0  0  0
    4.3018    0.8897    0.0000 S   0  0  0  0  0  0  0  0  0  0  0  0
    0.7036   -0.7845    0.0000 C   0  0  0  0  0  0  0  0  0  0  0  0
    0.0898   -2.1532    0.0000 O   0  0  0  0  0  0  0  0  0  0  0  0
   -0.1748    0.4314    0.0000 N   0  0  0  0  0  0  0  0  0  0  0  0
    0.2925    1.8567    0.0000 C   0  0  0  0  0  0  0  0  0  0  0  0
   -0.9186    2.7417    0.0000 C   0  0  0  0  0  0  0  0  0  0  0  0
   -2.1345    1.8633    0.0000 C   0  0  0  0  0  0  0  0  0  0  0  0
   -1.6748    0.4355    0.0000 C   0  0  0  0  0  0  0  0  0  0  0  0
   -2.5598   -0.7757    0.0000 C   0  0  0  0  0  0  0  0  0  0  0  0
   -1.9534   -2.1477    0.0000 O   0  0  0  0  0  0  0  0  0  0  0  0
   -4.0511   -0.6149    0.0000 O   0  0  0  0  0  0  0  0  0  0  0  0
  1  2  1  0
  2  3  1  0
  3  4  1  0
  2  5  1  0
  5  6  2  0
  5  7  1  0
  7  8  1  0
  8  9  1  0
  9 10  1  0
 10 11  1  0
 11 12  1  0
 12 13  2  0
 12 14  1  0
 11  7  1  0
M  CHG  1  14  -1
M  END
>  <pIC50_class>  (87) 
negative

$$$$

     RDKit          2D

 13 13  0  0  0  0  0  0  0  0999 V2000
    3.5501   -1.5460    0.0000 O   0  0  0  0  0  0  0  0  0  0  0  0
    2.0831   -1.2328    0.0000 C   0  0  0  0  0  0  0  0  0  0  0  0
    1.0784   -2.3466    0.0000 O   0  0  0  0  0  0  0  0  0  0  0  0
    1.6209    0.1942    0.0000 C   0  0  0  0  0  0  0  0  0  0  0  0
    2.5037    1.4069    0.0000 C   0  0  0  0  0  0  0  0  0  0  0  0
    1.6231    2.6213    0.0000 C   0  0  0  0  0  0  0  0  0  0  0  0
    0.1961    2.1591    0.0000 C   0  0  0  0  0  0  0  0  0  0  0  0
    0.1948    0.6591    0.0000 N   0  0  0  0  0  0  0  0  0  0  0  0
   -1.0196   -0.2215    0.0000 C   0  0  0  0  0  0  0  0  0  0  0  0
   -0.8642   -1.7134    0.0000 O   0  0  0  0  0  0  0  0  0  0  0  0
   -2.3893    0.3899    0.0000 C   0  0  0  0  0  0  0  0  0  0  0  0
   -3.6037   -0.4907    0.0000 C   0  0  0  0  0  0  0  0  0  0  0  0
   -4.9734    0.1207    0.0000 S   0  0  0  0  0  0  0  0  0  0  0  0
  1  2  2  0
  2  3  1  0
  2  4  1  0
  4  5  1  0
  5  6  1  0
  6  7  1  0
  7  8  1  0
  8  9  1  0
  9 10  2  0
  9 11  1  0
 11 12  1  0
 12 13  1  0
  8  4  1  0
M  CHG  1   3  -1
M  END
>  <pIC50_class>  (88) 
negative

$$$$

     RDKit          2D

 15 14  0  0  0  0  0  0  0  0999 V2000
   -3.0760    2.6473    0.0000 C   0  0  0  0  0  0  0  0  0  0  0  0
   -3.2600    1.1586    0.0000 C   0  0  0  0  0  0  0  0  0  0  0  0
   -4.6412    0.5736    0.0000 C   0  0  0  0  0  0  0  0  0  0  0  0
   -2.0628    0.2549    0.0000 C   0  0  0  0  0  0  0  0  0  0  0  0
   -0.6815    0.8399    0.0000 N   0  0  0  0  0  0  0  0  0  0  0  0
    0.5157   -0.0637    0.0000 C   0  0  0  0  0  0  0  0  0  0  0  0
    0.3317   -1.5524    0.0000 O   0  0  0  0  0  0  0  0  0  0  0  0
    1.8969    0.5213    0.0000 C   0  0  0  0  0  0  0  0  0  0  0  0
    3.0941   -0.3824    0.0000 C   0  0  0  0  0  0  0  0  0  0  0  0
    4.4754    0.2026    0.0000 C   0  0  0  0  0  0  0  0  0  0  0  0
    4.6594    1.6913    0.0000 O   0  0  0  0  0  0  0  0  0  0  0  0
    5.6726   -0.7011    0.0000 O   0  0  0  0  0  0  0  0  0  0  0  0
   -2.2468   -1.2337    0.0000 C   0  0  0  0  0  0  0  0  0  0  0  0
   -3.6280   -1.8187    0.0000 O   0  0  0  0  0  0  0  0  0  0  0  0
   -1.0495   -2.1374    0.0000 O   0  0  0  0  0  0  0  0  0  0  0  0
  1  2  1  0
  2  3  1  0
  2  4  1  0
  4  5  1  0
  5  6  1  0
  6  7  2  0
  6  8  1  0
  8  9  1  0
  9 10  1  0
 10 11  2  0
 10 12  1  0
  4 13  1  0
 13 14  2  0
 13 15  1  0
M  CHG  2  12  -1  15  -1
M  END
>  <pIC50_class>  (89) 
negative

$$$$

     RDKit          2D

 16 15  0  0  0  0  0  0  0  0999 V2000
   -4.6347   -2.4662    0.0000 C   0  0  0  0  0  0  0  0  0  0  0  0
   -3.3105   -1.7616    0.0000 C   0  0  0  0  0  0  0  0  0  0  0  0
   -2.0382   -2.5561    0.0000 C   0  0  0  0  0  0  0  0  0  0  0  0
   -3.2586   -0.2625    0.0000 C   0  0  0  0  0  0  0  0  0  0  0  0
   -1.9344    0.4422    0.0000 C   0  0  0  0  0  0  0  0  0  0  0  0
   -0.6621   -0.3523    0.0000 N   0  0  0  0  0  0  0  0  0  0  0  0
    0.6621    0.3523    0.0000 C   0  0  0  0  0  0  0  0  0  0  0  0
    0.7140    1.8514    0.0000 O   0  0  0  0  0  0  0  0  0  0  0  0
    1.9344   -0.4422    0.0000 C   0  0  0  0  0  0  0  0  0  0  0  0
    3.2586    0.2625    0.0000 C   0  0  0  0  0  0  0  0  0  0  0  0
    4.5309   -0.5320    0.0000 C   0  0  0  0  0  0  0  0  0  0  0  0
    4.4791   -2.0311    0.0000 O   0  0  0  0  0  0  0  0  0  0  0  0
    5.8551    0.1726    0.0000 O   0  0  0  0  0  0  0  0  0  0  0  0
   -1.8826    1.9413    0.0000 C   0  0  0  0  0  0  0  0  0  0  0  0
   -3.1549    2.7357    0.0000 O   0  0  0  0  0  0  0  0  0  0  0  0
   -0.5584    2.6459    0.0000 O   0  0  0  0  0  0  0  0  0  0  0  0
  1  2  1  0
  2  3  1  0
  2  4  1  0
  4  5  1  0
  5  6  1  0
  6  7  1  0
  7  8  2  0
  7  9  1  0
  9 10  1  0
 10 11  1  0
 11 12  2  0
 11 13  1  0
  5 14  1  0
 14 15  2  0
 14 16  1  0
M  CHG  2  13  -1  16  -1
M  END
>  <pIC50_class>  (90) 
negative

$$$$

     RDKit          2D

 16 15  0  0  0  0  0  0  0  0999 V2000
    1.7158    2.9603    0.0000 C   0  0  0  0  0  0  0  0  0  0  0  0
    3.0710    2.3173    0.0000 C   0  0  0  0  0  0  0  0  0  0  0  0
    3.1918    0.8222    0.0000 C   0  0  0  0  0  0  0  0  0  0  0  0
    4.5470    0.1792    0.0000 C   0  0  0  0  0  0  0  0  0  0  0  0
    1.9573   -0.0300    0.0000 C   0  0  0  0  0  0  0  0  0  0  0  0
    0.6021    0.6130    0.0000 N   0  0  0  0  0  0  0  0  0  0  0  0
   -0.6323   -0.2392    0.0000 C   0  0  0  0  0  0  0  0  0  0  0  0
   -0.5115   -1.7343    0.0000 O   0  0  0  0  0  0  0  0  0  0  0  0
   -1.9875    0.4038    0.0000 C   0  0  0  0  0  0  0  0  0  0  0  0
   -3.2220   -0.4484    0.0000 C   0  0  0  0  0  0  0  0  0  0  0  0
   -4.5772    0.1946    0.0000 C   0  0  0  0  0  0  0  0  0  0  0  0
   -4.6979    1.6897    0.0000 O   0  0  0  0  0  0  0  0  0  0  0  0
   -5.8116   -0.6576    0.0000 O   0  0  0  0  0  0  0  0  0  0  0  0
    2.0781   -1.5251    0.0000 C   0  0  0  0  0  0  0  0  0  0  0  0
    3.4333   -2.1681    0.0000 O   0  0  0  0  0  0  0  0  0  0  0  0
    0.8437   -2.3773    0.0000 O   0  0  0  0  0  0  0  0  0  0  0  0
  1  2  1  0
  2  3  1  0
  3  4  1  0
  3  5  1  0
  5  6  1  0
  6  7  1  0
  7  8  2  0
  7  9  1  0
  9 10  1  0
 10 11  1  0
 11 12  2  0
 11 13  1  0
  5 14  1  0
 14 15  2  0
 14 16  1  0
M  CHG  2  13  -1  16  -1
M  END
>  <pIC50_class>  (91) 
negative

$$$$

     RDKit          2D

 19 19  0  0  0  0  0  0  0  0999 V2000
   -4.3414    2.8552    0.0000 O   0  0  0  0  0  0  0  0  0  0  0  0
   -4.8583    1.4471    0.0000 C   0  0  0  0  0  0  0  0  0  0  0  0
   -6.3363    1.1907    0.0000 O   0  0  0  0  0  0  0  0  0  0  0  0
   -3.8973    0.2953    0.0000 C   0  0  0  0  0  0  0  0  0  0  0  0
   -2.4194    0.5517    0.0000 C   0  0  0  0  0  0  0  0  0  0  0  0
   -1.4584   -0.6000    0.0000 C   0  0  0  0  0  0  0  0  0  0  0  0
   -1.9753   -2.0081    0.0000 O   0  0  0  0  0  0  0  0  0  0  0  0
    0.0195   -0.3436    0.0000 N   0  0  0  0  0  0  0  0  0  0  0  0
    0.9806   -1.4953    0.0000 C   0  0  0  0  0  0  0  0  0  0  0  0
    2.4585   -1.2389    0.0000 C   0  0  0  0  0  0  0  0  0  0  0  0
    2.9754    0.1692    0.0000 C   0  0  0  0  0  0  0  0  0  0  0  0
    2.0144    1.3210    0.0000 C   0  0  0  0  0  0  0  0  0  0  0  0
    2.5313    2.7291    0.0000 C   0  0  0  0  0  0  0  0  0  0  0  0
    4.0092    2.9855    0.0000 C   0  0  0  0  0  0  0  0  0  0  0  0
    4.9702    1.8338    0.0000 C   0  0  0  0  0  0  0  0  0  0  0  0
    4.4533    0.4256    0.0000 C   0  0  0  0  0  0  0  0  0  0  0  0
    0.4636   -2.9034    0.0000 C   0  0  0  0  0  0  0  0  0  0  0  0
    1.4247   -4.0551    0.0000 O   0  0  0  0  0  0  0  0  0  0  0  0
   -1.0143   -3.1598    0.0000 O   0  0  0  0  0  0  0  0  0  0  0  0
  1  2  2  0
  2  3  1  0
  2  4  1  0
  4  5  1  0
  5  6  1  0
  6  7  2  0
  6  8  1  0
  8  9  1  0
  9 10  1  0
 10 11  1  0
 11 12  2  0
 12 13  1  0
 13 14  2  0
 14 15  1  0
 15 16  2  0
  9 17  1  0
 17 18  2  0
 17 19  1  0
 16 11  1  0
M  CHG  2   3  -1  19  -1
M  END
>  <pIC50_class>  (92) 
negative

$$$$

     RDKit          2D

 12 12  0  0  0  0  0  0  0  0999 V2000
    4.0309   -0.3583    0.0000 N   0  0  0  0  0  0  0  0  0  0  0  0
    2.7903    0.4850    0.0000 C   0  0  0  0  0  0  0  0  0  0  0  0
    1.4398   -0.1678    0.0000 C   0  0  0  0  0  0  0  0  0  0  0  0
    1.3298   -1.6637    0.0000 O   0  0  0  0  0  0  0  0  0  0  0  0
    0.1993    0.6755    0.0000 N   0  0  0  0  0  0  0  0  0  0  0  0
    0.1523    2.1747    0.0000 C   0  0  0  0  0  0  0  0  0  0  0  0
   -1.2881    2.5934    0.0000 C   0  0  0  0  0  0  0  0  0  0  0  0
   -2.1314    1.3528    0.0000 C   0  0  0  0  0  0  0  0  0  0  0  0
   -1.2121    0.1675    0.0000 C   0  0  0  0  0  0  0  0  0  0  0  0
   -1.6307   -1.2729    0.0000 C   0  0  0  0  0  0  0  0  0  0  0  0
   -0.5926   -2.3556    0.0000 O   0  0  0  0  0  0  0  0  0  0  0  0
   -3.0875   -1.6306    0.0000 O   0  0  0  0  0  0  0  0  0  0  0  0
  1  2  1  0
  2  3  1  0
  3  4  2  0
  3  5  1  0
  5  6  1  0
  6  7  1  0
  7  8  1  0
  8  9  1  0
  9 10  1  0
 10 11  2  0
 10 12  1  0
  9  5  1  0
M  CHG  1  12  -1
M  END
>  <pIC50_class>  (93) 
negative

$$$$

     RDKit          2D

 13 13  0  0  0  0  0  0  0  0999 V2000
    3.6344   -1.2454    0.0000 C   0  0  0  0  0  0  0  0  0  0  0  0
    2.5827   -0.1759    0.0000 C   0  0  0  0  0  0  0  0  0  0  0  0
    2.9831    1.2697    0.0000 N   0  0  0  0  0  0  0  0  0  0  0  0
    1.1306   -0.5519    0.0000 C   0  0  0  0  0  0  0  0  0  0  0  0
    0.7302   -1.9975    0.0000 O   0  0  0  0  0  0  0  0  0  0  0  0
    0.0789    0.5177    0.0000 N   0  0  0  0  0  0  0  0  0  0  0  0
    0.3260    1.9972    0.0000 C   0  0  0  0  0  0  0  0  0  0  0  0
   -1.0047    2.6894    0.0000 C   0  0  0  0  0  0  0  0  0  0  0  0
   -2.0742    1.6377    0.0000 C   0  0  0  0  0  0  0  0  0  0  0  0
   -1.4045    0.2955    0.0000 C   0  0  0  0  0  0  0  0  0  0  0  0
   -2.0968   -1.0352    0.0000 C   0  0  0  0  0  0  0  0  0  0  0  0
   -1.2904   -2.3001    0.0000 O   0  0  0  0  0  0  0  0  0  0  0  0
   -3.5953   -1.1011    0.0000 O   0  0  0  0  0  0  0  0  0  0  0  0
  1  2  1  0
  2  3  1  0
  2  4  1  0
  4  5  2  0
  4  6  1  0
  6  7  1  0
  7  8  1  0
  8  9  1  0
  9 10  1  0
 10 11  1  0
 11 12  2  0
 11 13  1  0
 10  6  1  0
M  CHG  1  13  -1
M  END
>  <pIC50_class>  (94) 
negative

$$$$

     RDKit          2D

 15 15  0  0  0  0  0  0  0  0999 V2000
    4.5665    0.2891    0.0000 C   0  0  0  0  0  0  0  0  0  0  0  0
    3.2193   -0.3703    0.0000 C   0  0  0  0  0  0  0  0  0  0  0  0
    3.1167   -1.8668    0.0000 C   0  0  0  0  0  0  0  0  0  0  0  0
    1.9745    0.4667    0.0000 C   0  0  0  0  0  0  0  0  0  0  0  0
    2.0771    1.9632    0.0000 N   0  0  0  0  0  0  0  0  0  0  0  0
    0.6273   -0.1927    0.0000 C   0  0  0  0  0  0  0  0  0  0  0  0
    0.5247   -1.6892    0.0000 O   0  0  0  0  0  0  0  0  0  0  0  0
   -0.6175    0.6443    0.0000 N   0  0  0  0  0  0  0  0  0  0  0  0
   -0.6719    2.1433    0.0000 C   0  0  0  0  0  0  0  0  0  0  0  0
   -2.1144    2.5548    0.0000 C   0  0  0  0  0  0  0  0  0  0  0  0
   -2.9514    1.3100    0.0000 C   0  0  0  0  0  0  0  0  0  0  0  0
   -2.0263    0.1293    0.0000 C   0  0  0  0  0  0  0  0  0  0  0  0
   -2.4377   -1.3131    0.0000 C   0  0  0  0  0  0  0  0  0  0  0  0
   -1.3942   -2.3907    0.0000 O   0  0  0  0  0  0  0  0  0  0  0  0
   -3.8927   -1.6781    0.0000 O   0  0  0  0  0  0  0  0  0  0  0  0
  1  2  1  0
  2  3  1  0
  2  4  1  0
  4  5  1  0
  4  6  1  0
  6  7  2  0
  6  8  1  0
  8  9  1  0
  9 10  1  0
 10 11  1  0
 11 12  1  0
 12 13  1  0
 13 14  2  0
 13 15  1  0
 12  8  1  0
M  CHG  1  15  -1
M  END
>  <pIC50_class>  (95) 
negative

$$$$

     RDKit          2D

 16 16  0  0  0  0  0  0  0  0999 V2000
    4.4362   -1.8612    0.0000 C   0  0  0  0  0  0  0  0  0  0  0  0
    3.0755   -1.2300    0.0000 C   0  0  0  0  0  0  0  0  0  0  0  0
    2.9417    0.2640    0.0000 C   0  0  0  0  0  0  0  0  0  0  0  0
    4.1687    1.1269    0.0000 C   0  0  0  0  0  0  0  0  0  0  0  0
    1.5810    0.8951    0.0000 C   0  0  0  0  0  0  0  0  0  0  0  0
    1.4472    2.3892    0.0000 N   0  0  0  0  0  0  0  0  0  0  0  0
    0.3540    0.0323    0.0000 C   0  0  0  0  0  0  0  0  0  0  0  0
    0.4878   -1.4617    0.0000 O   0  0  0  0  0  0  0  0  0  0  0  0
   -1.0068    0.6634    0.0000 N   0  0  0  0  0  0  0  0  0  0  0  0
   -1.2960    2.1353    0.0000 C   0  0  0  0  0  0  0  0  0  0  0  0
   -2.7852    2.3151    0.0000 C   0  0  0  0  0  0  0  0  0  0  0  0
   -3.4163    0.9543    0.0000 C   0  0  0  0  0  0  0  0  0  0  0  0
   -2.3172   -0.0665    0.0000 C   0  0  0  0  0  0  0  0  0  0  0  0
   -2.4970   -1.5556    0.0000 C   0  0  0  0  0  0  0  0  0  0  0  0
   -1.2972   -2.4559    0.0000 O   0  0  0  0  0  0  0  0  0  0  0  0
   -3.8765   -2.1446    0.0000 O   0  0  0  0  0  0  0  0  0  0  0  0
  1  2  1  0
  2  3  1  0
  3  4  1  0
  3  5  1  0
  5  6  1  0
  5  7  1  0
  7  8  2  0
  7  9  1  0
  9 10  1  0
 10 11  1  0
 11 12  1  0
 12 13  1  0
 13 14  1  0
 14 15  2  0
 14 16  1  0
 13  9  1  0
M  CHG  1  16  -1
M  END
>  <pIC50_class>  (96) 
negative

$$$$

     RDKit          2D

 16 16  0  0  0  0  0  0  0  0999 V2000
   -3.9235    2.9521    0.0000 N   0  0  0  0  0  0  0  0  0  0  0  0
   -2.5108    2.4478    0.0000 C   0  0  0  0  0  0  0  0  0  0  0  0
   -2.2411    0.9723    0.0000 C   0  0  0  0  0  0  0  0  0  0  0  0
   -3.3841    0.0009    0.0000 O   0  0  0  0  0  0  0  0  0  0  0  0
   -0.8284    0.4681    0.0000 N   0  0  0  0  0  0  0  0  0  0  0  0
   -0.5587   -1.0075    0.0000 C   0  0  0  0  0  0  0  0  0  0  0  0
    0.8540   -1.5117    0.0000 C   0  0  0  0  0  0  0  0  0  0  0  0
    1.9971   -0.5404    0.0000 C   0  0  0  0  0  0  0  0  0  0  0  0
    1.7274    0.9352    0.0000 C   0  0  0  0  0  0  0  0  0  0  0  0
    2.8704    1.9065    0.0000 C   0  0  0  0  0  0  0  0  0  0  0  0
    4.2831    1.4023    0.0000 C   0  0  0  0  0  0  0  0  0  0  0  0
    4.5528   -0.0732    0.0000 C   0  0  0  0  0  0  0  0  0  0  0  0
    3.4098   -1.0446    0.0000 C   0  0  0  0  0  0  0  0  0  0  0  0
   -1.7017   -1.9788    0.0000 C   0  0  0  0  0  0  0  0  0  0  0  0
   -1.4320   -3.4544    0.0000 O   0  0  0  0  0  0  0  0  0  0  0  0
   -3.1144   -1.4746    0.0000 O   0  0  0  0  0  0  0  0  0  0  0  0
  1  2  1  0
  2  3  1  0
  3  4  2  0
  3  5  1  0
  5  6  1  0
  6  7  1  0
  7  8  1  0
  8  9  2  0
  9 10  1  0
 10 11  2  0
 11 12  1  0
 12 13  2  0
  6 14  1  0
 14 15  2  0
 14 16  1  0
 13  8  1  0
M  CHG  1  16  -1
M  END
>  <pIC50_class>  (97) 
negative

$$$$

     RDKit          2D

 17 17  0  0  0  0  0  0  0  0999 V2000
   -4.0165    2.4909    0.0000 C   0  0  0  0  0  0  0  0  0  0  0  0
   -2.5735    2.0812    0.0000 C   0  0  0  0  0  0  0  0  0  0  0  0
   -1.4972    3.1259    0.0000 N   0  0  0  0  0  0  0  0  0  0  0  0
   -2.2069    0.6267    0.0000 C   0  0  0  0  0  0  0  0  0  0  0  0
   -3.2832   -0.4181    0.0000 O   0  0  0  0  0  0  0  0  0  0  0  0
   -0.7639    0.2169    0.0000 N   0  0  0  0  0  0  0  0  0  0  0  0
   -0.3973   -1.2376    0.0000 C   0  0  0  0  0  0  0  0  0  0  0  0
    1.0457   -1.6473    0.0000 C   0  0  0  0  0  0  0  0  0  0  0  0
    2.1220   -0.6026    0.0000 C   0  0  0  0  0  0  0  0  0  0  0  0
    1.7554    0.8519    0.0000 C   0  0  0  0  0  0  0  0  0  0  0  0
    2.8317    1.8967    0.0000 C   0  0  0  0  0  0  0  0  0  0  0  0
    4.2746    1.4870    0.0000 C   0  0  0  0  0  0  0  0  0  0  0  0
    4.6413    0.0325    0.0000 C   0  0  0  0  0  0  0  0  0  0  0  0
    3.5649   -1.0123    0.0000 C   0  0  0  0  0  0  0  0  0  0  0  0
   -1.4736   -2.2823    0.0000 C   0  0  0  0  0  0  0  0  0  0  0  0
   -1.1070   -3.7369    0.0000 O   0  0  0  0  0  0  0  0  0  0  0  0
   -2.9166   -1.8726    0.0000 O   0  0  0  0  0  0  0  0  0  0  0  0
  1  2  1  0
  2  3  1  0
  2  4  1  0
  4  5  2  0
  4  6  1  0
  6  7  1  0
  7  8  1  0
  8  9  1  0
  9 10  2  0
 10 11  1  0
 11 12  2  0
 12 13  1  0
 13 14  2  0
  7 15  1  0
 15 16  2  0
 15 17  1  0
 14  9  1  0
M  CHG  1  17  -1
M  END
>  <pIC50_class>  (98) 
negative

$$$$

     RDKit          2D

 19 19  0  0  0  0  0  0  0  0999 V2000
   -4.6030    2.7035    0.0000 C   0  0  0  0  0  0  0  0  0  0  0  0
   -3.9213    1.3673    0.0000 C   0  0  0  0  0  0  0  0  0  0  0  0
   -4.7376    0.1089    0.0000 C   0  0  0  0  0  0  0  0  0  0  0  0
   -2.4233    1.2896    0.0000 C   0  0  0  0  0  0  0  0  0  0  0  0
   -1.6070    2.5480    0.0000 N   0  0  0  0  0  0  0  0  0  0  0  0
   -1.7416   -0.0466    0.0000 C   0  0  0  0  0  0  0  0  0  0  0  0
   -2.5579   -1.3050    0.0000 O   0  0  0  0  0  0  0  0  0  0  0  0
   -0.2436   -0.1243    0.0000 N   0  0  0  0  0  0  0  0  0  0  0  0
    0.4381   -1.4604    0.0000 C   0  0  0  0  0  0  0  0  0  0  0  0
    1.9361   -1.5382    0.0000 C   0  0  0  0  0  0  0  0  0  0  0  0
    2.7524   -0.2797    0.0000 C   0  0  0  0  0  0  0  0  0  0  0  0
    2.0707    1.0564    0.0000 C   0  0  0  0  0  0  0  0  0  0  0  0
    2.8870    2.3149    0.0000 C   0  0  0  0  0  0  0  0  0  0  0  0
    4.3850    2.2371    0.0000 C   0  0  0  0  0  0  0  0  0  0  0  0
    5.0666    0.9010    0.0000 C   0  0  0  0  0  0  0  0  0  0  0  0
    4.2503   -0.3574    0.0000 C   0  0  0  0  0  0  0  0  0  0  0  0
   -0.3782   -2.7189    0.0000 C   0  0  0  0  0  0  0  0  0  0  0  0
    0.3035   -4.0550    0.0000 O   0  0  0  0  0  0  0  0  0  0  0  0
   -1.8762   -2.6412    0.0000 O   0  0  0  0  0  0  0  0  0  0  0  0
  1  2  1  0
  2  3  1  0
  2  4  1  0
  4  5  1  0
  4  6  1  0
  6  7  2  0
  6  8  1  0
  8  9  1  0
  9 10  1  0
 10 11  1  0
 11 12  2  0
 12 13  1  0
 13 14  2  0
 14 15  1  0
 15 16  2  0
  9 17  1  0
 17 18  2  0
 17 19  1  0
 16 11  1  0
M  CHG  1  19  -1
M  END
>  <pIC50_class>  (99) 
negative

$$$$

     RDKit          2D

 20 20  0  0  0  0  0  0  0  0999 V2000
   -5.9250    0.1298    0.0000 C   0  0  0  0  0  0  0  0  0  0  0  0
   -4.4264    0.0641    0.0000 C   0  0  0  0  0  0  0  0  0  0  0  0
   -3.6202    1.3290    0.0000 C   0  0  0  0  0  0  0  0  0  0  0  0
   -4.3126    2.6597    0.0000 C   0  0  0  0  0  0  0  0  0  0  0  0
   -2.1217    1.2633    0.0000 C   0  0  0  0  0  0  0  0  0  0  0  0
   -1.3155    2.5282    0.0000 N   0  0  0  0  0  0  0  0  0  0  0  0
   -1.4293   -0.0673    0.0000 C   0  0  0  0  0  0  0  0  0  0  0  0
   -2.2355   -1.3323    0.0000 O   0  0  0  0  0  0  0  0  0  0  0  0
    0.0692   -0.1331    0.0000 N   0  0  0  0  0  0  0  0  0  0  0  0
    0.7616   -1.4637    0.0000 C   0  0  0  0  0  0  0  0  0  0  0  0
    2.2602   -1.5294    0.0000 C   0  0  0  0  0  0  0  0  0  0  0  0
    3.0664   -0.2645    0.0000 C   0  0  0  0  0  0  0  0  0  0  0  0
    2.3740    1.0661    0.0000 C   0  0  0  0  0  0  0  0  0  0  0  0
    3.1802    2.3311    0.0000 C   0  0  0  0  0  0  0  0  0  0  0  0
    4.6787    2.2654    0.0000 C   0  0  0  0  0  0  0  0  0  0  0  0
    5.3711    0.9347    0.0000 C   0  0  0  0  0  0  0  0  0  0  0  0
    4.5649   -0.3302    0.0000 C   0  0  0  0  0  0  0  0  0  0  0  0
   -0.0446   -2.7286    0.0000 C   0  0  0  0  0  0  0  0  0  0  0  0
    0.6478   -4.0593    0.0000 O   0  0  0  0  0  0  0  0  0  0  0  0
   -1.5432   -2.6629    0.0000 O   0  0  0  0  0  0  0  0  0  0  0  0
  1  2  1  0
  2  3  1  0
  3  4  1  0
  3  5  1  0
  5  6  1  0
  5  7  1  0
  7  8  2  0
  7  9  1  0
  9 10  1  0
 10 11  1  0
 11 12  1  0
 12 13  2  0
 13 14  1  0
 14 15  2  0
 15 16  1  0
 16 17  2  0
 10 18  1  0
 18 19  2  0
 18 20  1  0
 17 12  1  0
M  CHG  1  20  -1
M  END
>  <pIC50_class>  (100) 
negative

$$$$

     RDKit          2D

 11 11  0  0  0  0  0  0  0  0999 V2000
   -3.0027   -0.9795    0.0000 C   0  0  0  0  0  0  0  0  0  0  0  0
   -1.6887   -0.2559    0.0000 C   0  0  0  0  0  0  0  0  0  0  0  0
   -1.6584    1.2438    0.0000 C   0  0  0  0  0  0  0  0  0  0  0  0
   -2.9420    2.0199    0.0000 S   0  0  0  0  0  0  0  0  0  0  0  0
   -0.4051   -1.0320    0.0000 C   0  0  0  0  0  0  0  0  0  0  0  0
   -0.4355   -2.5317    0.0000 O   0  0  0  0  0  0  0  0  0  0  0  0
    0.9088   -0.3084    0.0000 N   0  0  0  0  0  0  0  0  0  0  0  0
    2.2665   -0.9461    0.0000 C   0  0  0  0  0  0  0  0  0  0  0  0
    3.2925    0.1481    0.0000 C   0  0  0  0  0  0  0  0  0  0  0  0
    2.5689    1.4620    0.0000 C   0  0  0  0  0  0  0  0  0  0  0  0
    1.0957    1.1799    0.0000 C   0  0  0  0  0  0  0  0  0  0  0  0
  1  2  1  0
  2  3  1  0
  3  4  1  0
  2  5  1  0
  5  6  2  0
  5  7  1  0
  7  8  1  0
  8  9  1  0
  9 10  1  0
 10 11  1  0
 11  7  1  0
M  END
>  <pIC50_class>  (101) 
negative

$$$$

     RDKit          2D

 15 15  0  0  0  0  0  0  0  0999 V2000
    1.8397   -3.9178    0.0000 C   0  0  0  0  0  0  0  0  0  0  0  0
    2.4057   -2.5287    0.0000 C   0  0  0  0  0  0  0  0  0  0  0  0
    1.4857   -1.3440    0.0000 O   0  0  0  0  0  0  0  0  0  0  0  0
    2.0517    0.0451    0.0000 C   0  0  0  0  0  0  0  0  0  0  0  0
    3.5377    0.2495    0.0000 O   0  0  0  0  0  0  0  0  0  0  0  0
    1.1316    1.2298    0.0000 C   0  0  0  0  0  0  0  0  0  0  0  0
    1.5493    2.6705    0.0000 C   0  0  0  0  0  0  0  0  0  0  0  0
    0.3082    3.5129    0.0000 C   0  0  0  0  0  0  0  0  0  0  0  0
   -0.8765    2.5929    0.0000 C   0  0  0  0  0  0  0  0  0  0  0  0
   -0.3676    1.1819    0.0000 N   0  0  0  0  0  0  0  0  0  0  0  0
   -1.2100   -0.0592    0.0000 C   0  0  0  0  0  0  0  0  0  0  0  0
   -0.5564   -1.4093    0.0000 O   0  0  0  0  0  0  0  0  0  0  0  0
   -2.7061    0.0498    0.0000 C   0  0  0  0  0  0  0  0  0  0  0  0
   -3.5485   -1.1913    0.0000 C   0  0  0  0  0  0  0  0  0  0  0  0
   -5.0445   -1.0822    0.0000 S   0  0  0  0  0  0  0  0  0  0  0  0
  1  2  1  0
  2  3  1  0
  3  4  1  0
  4  5  2  0
  4  6  1  0
  6  7  1  0
  7  8  1  0
  8  9  1  0
  9 10  1  0
 10 11  1  0
 11 12  2  0
 11 13  1  0
 13 14  1  0
 14 15  1  0
 10  6  1  0
M  END
>  <pIC50_class>  (102) 
negative

$$$$

     RDKit          2D

  9  8  0  0  0  0  0  0  0  0999 V2000
    2.9595   -1.5338    0.0000 O   0  0  0  0  0  0  0  0  0  0  0  0
    2.8913   -0.0353    0.0000 C   0  0  0  0  0  0  0  0  0  0  0  0
    4.1550    0.7729    0.0000 O   0  0  0  0  0  0  0  0  0  0  0  0
    1.5596    0.6549    0.0000 C   0  0  0  0  0  0  0  0  0  0  0  0
    0.2960   -0.1534    0.0000 C   0  0  0  0  0  0  0  0  0  0  0  0
   -1.0358    0.5368    0.0000 C   0  0  0  0  0  0  0  0  0  0  0  0
   -2.2994   -0.2714    0.0000 C   0  0  0  0  0  0  0  0  0  0  0  0
   -3.6312    0.4188    0.0000 C   0  0  0  0  0  0  0  0  0  0  0  0
   -4.8948   -0.3895    0.0000 S   0  0  0  0  0  0  0  0  0  0  0  0
  1  2  2  0
  2  3  1  0
  2  4  1  0
  4  5  1  0
  5  6  1  0
  6  7  1  0
  7  8  1  0
  8  9  1  0
M  CHG  1   3  -1
M  END
>  <pIC50_class>  (103) 
negative

$$$$

     RDKit          2D

 12 12  0  0  0  0  0  0  0  0999 V2000
    3.5298   -1.5777    0.0000 O   0  0  0  0  0  0  0  0  0  0  0  0
    2.0537   -1.3111    0.0000 C   0  0  0  0  0  0  0  0  0  0  0  0
    1.0848   -2.4562    0.0000 O   0  0  0  0  0  0  0  0  0  0  0  0
    1.5465    0.1005    0.0000 C   0  0  0  0  0  0  0  0  0  0  0  0
    2.3904    1.3406    0.0000 C   0  0  0  0  0  0  0  0  0  0  0  0
    1.4718    2.5264    0.0000 C   0  0  0  0  0  0  0  0  0  0  0  0
    0.0601    2.0192    0.0000 C   0  0  0  0  0  0  0  0  0  0  0  0
    0.1063    0.5199    0.0000 N   0  0  0  0  0  0  0  0  0  0  0  0
   -1.0795   -0.3987    0.0000 C   0  0  0  0  0  0  0  0  0  0  0  0
   -2.4680    0.1689    0.0000 C   0  0  0  0  0  0  0  0  0  0  0  0
   -3.6538   -0.7497    0.0000 C   0  0  0  0  0  0  0  0  0  0  0  0
   -5.0422   -0.1821    0.0000 S   0  0  0  0  0  0  0  0  0  0  0  0
  1  2  2  0
  2  3  1  0
  2  4  1  0
  4  5  1  0
  5  6  1  0
  6  7  1  0
  7  8  1  0
  8  9  1  0
  9 10  1  0
 10 11  1  0
 11 12  1  0
  8  4  1  0
M  CHG  1   3  -1
M  END
>  <pIC50_class>  (104) 
negative

$$$$

     RDKit          2D

 13 13  0  0  0  0  0  0  0  0999 V2000
    3.7373   -1.5407    0.0000 O   0  0  0  0  0  0  0  0  0  0  0  0
    2.2462   -1.3779    0.0000 C   0  0  0  0  0  0  0  0  0  0  0  0
    1.3596   -2.5878    0.0000 O   0  0  0  0  0  0  0  0  0  0  0  0
    1.6416   -0.0051    0.0000 C   0  0  0  0  0  0  0  0  0  0  0  0
    2.3968    1.2909    0.0000 C   0  0  0  0  0  0  0  0  0  0  0  0
    1.3977    2.4097    0.0000 C   0  0  0  0  0  0  0  0  0  0  0  0
    0.0249    1.8051    0.0000 C   0  0  0  0  0  0  0  0  0  0  0  0
   -1.2711    2.5603    0.0000 O   0  0  0  0  0  0  0  0  0  0  0  0
    0.1757    0.3127    0.0000 N   0  0  0  0  0  0  0  0  0  0  0  0
   -0.9431   -0.6865    0.0000 C   0  0  0  0  0  0  0  0  0  0  0  0
   -2.3678   -0.2172    0.0000 C   0  0  0  0  0  0  0  0  0  0  0  0
   -3.4866   -1.2164    0.0000 C   0  0  0  0  0  0  0  0  0  0  0  0
   -4.9113   -0.7471    0.0000 S   0  0  0  0  0  0  0  0  0  0  0  0
  1  2  2  0
  2  3  1  0
  2  4  1  0
  4  5  1  0
  5  6  1  0
  6  7  1  0
  7  8  2  0
  7  9  1  0
  9 10  1  0
 10 11  1  0
 11 12  1  0
 12 13  1  0
  9  4  1  0
M  CHG  1   3  -1
M  END
>  <pIC50_class>  (105) 
negative

$$$$

     RDKit          2D

 10  9  0  0  0  0  0  0  0  0999 V2000
    3.1164   -1.6525    0.0000 O   0  0  0  0  0  0  0  0  0  0  0  0
    3.0072   -0.1565    0.0000 C   0  0  0  0  0  0  0  0  0  0  0  0
    4.2481    0.6861    0.0000 O   0  0  0  0  0  0  0  0  0  0  0  0
    1.6570    0.4970    0.0000 C   0  0  0  0  0  0  0  0  0  0  0  0
    0.4160   -0.3456    0.0000 C   0  0  0  0  0  0  0  0  0  0  0  0
   -0.9342    0.3078    0.0000 C   0  0  0  0  0  0  0  0  0  0  0  0
   -1.0434    1.8038    0.0000 O   0  0  0  0  0  0  0  0  0  0  0  0
   -2.1752   -0.5348    0.0000 C   0  0  0  0  0  0  0  0  0  0  0  0
   -3.5254    0.1186    0.0000 C   0  0  0  0  0  0  0  0  0  0  0  0
   -4.7664   -0.7239    0.0000 S   0  0  0  0  0  0  0  0  0  0  0  0
  1  2  2  0
  2  3  1  0
  2  4  1  0
  4  5  1  0
  5  6  1  0
  6  7  2  0
  6  8  1  0
  8  9  1  0
  9 10  1  0
M  CHG  1   3  -1
M  END
>  <pIC50_class>  (106) 
negative

$$$$

     RDKit          2D

 17 17  0  0  0  0  0  0  0  0999 V2000
    1.9016   -2.6671    0.0000 C   0  0  0  0  0  0  0  0  0  0  0  0
    2.6905   -1.3913    0.0000 C   0  0  0  0  0  0  0  0  0  0  0  0
    3.4793   -0.1155    0.0000 C   0  0  0  0  0  0  0  0  0  0  0  0
    3.9663   -2.1802    0.0000 C   0  0  0  0  0  0  0  0  0  0  0  0
    1.4147   -0.6024    0.0000 O   0  0  0  0  0  0  0  0  0  0  0  0
    1.4599    0.8969    0.0000 C   0  0  0  0  0  0  0  0  0  0  0  0
    2.7810    1.6073    0.0000 O   0  0  0  0  0  0  0  0  0  0  0  0
    0.1841    1.6857    0.0000 C   0  0  0  0  0  0  0  0  0  0  0  0
    0.0724    3.1816    0.0000 C   0  0  0  0  0  0  0  0  0  0  0  0
   -1.3847    3.5376    0.0000 C   0  0  0  0  0  0  0  0  0  0  0  0
   -2.1736    2.2618    0.0000 C   0  0  0  0  0  0  0  0  0  0  0  0
   -1.2040    1.1173    0.0000 N   0  0  0  0  0  0  0  0  0  0  0  0
   -1.5600   -0.3399    0.0000 C   0  0  0  0  0  0  0  0  0  0  0  0
   -0.4761   -1.3768    0.0000 O   0  0  0  0  0  0  0  0  0  0  0  0
   -2.9999   -0.7601    0.0000 C   0  0  0  0  0  0  0  0  0  0  0  0
   -3.3559   -2.2173    0.0000 C   0  0  0  0  0  0  0  0  0  0  0  0
   -4.7958   -2.6375    0.0000 S   0  0  0  0  0  0  0  0  0  0  0  0
  1  2  1  0
  2  3  1  0
  2  4  1  0
  2  5  1  0
  5  6  1  0
  6  7  2  0
  6  8  1  0
  8  9  1  0
  9 10  1  0
 10 11  1  0
 11 12  1  0
 12 13  1  0
 13 14  2  0
 13 15  1  0
 15 16  1  0
 16 17  1  0
 12  8  1  0
M  END
>  <pIC50_class>  (107) 
negative

$$$$

     RDKit          2D

 17 17  0  0  0  0  0  0  0  0999 V2000
   -3.0034   -0.9437    0.0000 O   0  0  0  0  0  0  0  0  0  0  0  0
   -2.1022    0.2554    0.0000 C   0  0  0  0  0  0  0  0  0  0  0  0
   -2.6901    1.6354    0.0000 C   0  0  0  0  0  0  0  0  0  0  0  0
   -4.1791    1.8163    0.0000 C   0  0  0  0  0  0  0  0  0  0  0  0
   -4.7670    3.1963    0.0000 S   0  0  0  0  0  0  0  0  0  0  0  0
   -0.6131    0.0745    0.0000 O   0  0  0  0  0  0  0  0  0  0  0  0
   -0.0253   -1.3055    0.0000 C   0  0  0  0  0  0  0  0  0  0  0  0
    1.4638   -1.4864    0.0000 C   0  0  0  0  0  0  0  0  0  0  0  0
    2.3650   -0.2873    0.0000 C   0  0  0  0  0  0  0  0  0  0  0  0
    1.7771    1.0927    0.0000 C   0  0  0  0  0  0  0  0  0  0  0  0
    2.6783    2.2918    0.0000 C   0  0  0  0  0  0  0  0  0  0  0  0
    4.1673    2.1109    0.0000 C   0  0  0  0  0  0  0  0  0  0  0  0
    4.7552    0.7309    0.0000 C   0  0  0  0  0  0  0  0  0  0  0  0
    3.8540   -0.4682    0.0000 C   0  0  0  0  0  0  0  0  0  0  0  0
   -0.9265   -2.5046    0.0000 C   0  0  0  0  0  0  0  0  0  0  0  0
   -0.3386   -3.8846    0.0000 O   0  0  0  0  0  0  0  0  0  0  0  0
   -2.4155   -2.3237    0.0000 O   0  0  0  0  0  0  0  0  0  0  0  0
  1  2  2  0
  2  3  1  0
  3  4  1  0
  4  5  1  0
  2  6  1  0
  6  7  1  0
  7  8  1  0
  8  9  1  0
  9 10  2  0
 10 11  1  0
 11 12  2  0
 12 13  1  0
 13 14  2  0
  7 15  1  0
 15 16  2  0
 15 17  1  0
 14  9  1  0
M  CHG  1  17  -1
M  END
>  <pIC50_class>  (108) 
negative

$$$$

     RDKit          2D

 15 15  0  0  0  0  0  0  0  0999 V2000
    4.4176    1.4286    0.0000 O   0  0  0  0  0  0  0  0  0  0  0  0
    4.2191   -0.0582    0.0000 C   0  0  0  0  0  0  0  0  0  0  0  0
    5.4074   -0.9735    0.0000 O   0  0  0  0  0  0  0  0  0  0  0  0
    2.8322   -0.6297    0.0000 C   0  0  0  0  0  0  0  0  0  0  0  0
    1.6438    0.2856    0.0000 C   0  0  0  0  0  0  0  0  0  0  0  0
    0.2570   -0.2859    0.0000 C   0  0  0  0  0  0  0  0  0  0  0  0
    0.0585   -1.7727    0.0000 O   0  0  0  0  0  0  0  0  0  0  0  0
   -0.9314    0.6294    0.0000 N   0  0  0  0  0  0  0  0  0  0  0  0
   -0.8894    2.1288    0.0000 C   0  0  0  0  0  0  0  0  0  0  0  0
   -2.3025    2.6321    0.0000 C   0  0  0  0  0  0  0  0  0  0  0  0
   -3.2178    1.4437    0.0000 C   0  0  0  0  0  0  0  0  0  0  0  0
   -2.3704    0.2060    0.0000 C   0  0  0  0  0  0  0  0  0  0  0  0
   -2.8737   -1.2071    0.0000 C   0  0  0  0  0  0  0  0  0  0  0  0
   -1.9016   -2.3494    0.0000 O   0  0  0  0  0  0  0  0  0  0  0  0
   -4.3490   -1.4777    0.0000 O   0  0  0  0  0  0  0  0  0  0  0  0
  1  2  2  0
  2  3  1  0
  2  4  1  0
  4  5  1  0
  5  6  1  0
  6  7  2  0
  6  8  1  0
  8  9  1  0
  9 10  1  0
 10 11  1  0
 11 12  1  0
 12 13  1  0
 13 14  2  0
 13 15  1  0
 12  8  1  0
M  CHG  2   3  -1  15  -1
M  END
>  <pIC50_class>  (109) 
negative

$$$$

     RDKit          2D

 16 16  0  0  0  0  0  0  0  0999 V2000
    2.2453   -2.1914    0.0000 C   0  0  0  0  0  0  0  0  0  0  0  0
    1.4863   -0.8976    0.0000 C   0  0  0  0  0  0  0  0  0  0  0  0
    2.2272    0.4066    0.0000 C   0  0  0  0  0  0  0  0  0  0  0  0
    3.7272    0.4170    0.0000 C   0  0  0  0  0  0  0  0  0  0  0  0
    4.4862   -0.8768    0.0000 O   0  0  0  0  0  0  0  0  0  0  0  0
    4.4682    1.7212    0.0000 O   0  0  0  0  0  0  0  0  0  0  0  0
   -0.0137   -0.9081    0.0000 C   0  0  0  0  0  0  0  0  0  0  0  0
   -0.7546   -2.2123    0.0000 O   0  0  0  0  0  0  0  0  0  0  0  0
   -0.7727    0.3857    0.0000 N   0  0  0  0  0  0  0  0  0  0  0  0
   -0.1721    1.7603    0.0000 C   0  0  0  0  0  0  0  0  0  0  0  0
   -1.2938    2.7562    0.0000 C   0  0  0  0  0  0  0  0  0  0  0  0
   -2.5876    1.9972    0.0000 C   0  0  0  0  0  0  0  0  0  0  0  0
   -2.2655    0.5322    0.0000 C   0  0  0  0  0  0  0  0  0  0  0  0
   -3.2615   -0.5895    0.0000 C   0  0  0  0  0  0  0  0  0  0  0  0
   -2.7880   -2.0128    0.0000 O   0  0  0  0  0  0  0  0  0  0  0  0
   -4.7308   -0.2878    0.0000 O   0  0  0  0  0  0  0  0  0  0  0  0
  1  2  1  0
  2  3  1  0
  3  4  1  0
  4  5  2  0
  4  6  1  0
  2  7  1  0
  7  8  2  0
  7  9  1  0
  9 10  1  0
 10 11  1  0
 11 12  1  0
 12 13  1  0
 13 14  1  0
 14 15  2  0
 14 16  1  0
 13  9  1  0
M  CHG  2   6  -1  16  -1
M  END
>  <pIC50_class>  (110) 
negative

$$$$

     RDKit          2D

 17 17  0  0  0  0  0  0  0  0999 V2000
    1.3644   -2.8746    0.0000 C   0  0  0  0  0  0  0  0  0  0  0  0
    0.8953   -1.4498    0.0000 C   0  0  0  0  0  0  0  0  0  0  0  0
    1.8946   -0.3312    0.0000 C   0  0  0  0  0  0  0  0  0  0  0  0
    3.3631   -0.6374    0.0000 C   0  0  0  0  0  0  0  0  0  0  0  0
    4.3624    0.4813    0.0000 C   0  0  0  0  0  0  0  0  0  0  0  0
    3.8933    1.9060    0.0000 O   0  0  0  0  0  0  0  0  0  0  0  0
    5.8308    0.1751    0.0000 O   0  0  0  0  0  0  0  0  0  0  0  0
   -0.5731   -1.1437    0.0000 C   0  0  0  0  0  0  0  0  0  0  0  0
   -1.5725   -2.2623    0.0000 O   0  0  0  0  0  0  0  0  0  0  0  0
   -1.0422    0.2811    0.0000 N   0  0  0  0  0  0  0  0  0  0  0  0
   -0.1653    1.4980    0.0000 C   0  0  0  0  0  0  0  0  0  0  0  0
   -1.0517    2.7081    0.0000 C   0  0  0  0  0  0  0  0  0  0  0  0
   -2.4765    2.2390    0.0000 C   0  0  0  0  0  0  0  0  0  0  0  0
   -2.4706    0.7390    0.0000 C   0  0  0  0  0  0  0  0  0  0  0  0
   -3.6807   -0.1474    0.0000 C   0  0  0  0  0  0  0  0  0  0  0  0
   -3.5181   -1.6386    0.0000 O   0  0  0  0  0  0  0  0  0  0  0  0
   -5.0534    0.4574    0.0000 O   0  0  0  0  0  0  0  0  0  0  0  0
  1  2  1  0
  2  3  1  0
  3  4  1  0
  4  5  1  0
  5  6  2  0
  5  7  1  0
  2  8  1  0
  8  9  2  0
  8 10  1  0
 10 11  1  0
 11 12  1  0
 12 13  1  0
 13 14  1  0
 14 15  1  0
 15 16  2  0
 15 17  1  0
 14 10  1  0
M  CHG  2   7  -1  17  -1
M  END
>  <pIC50_class>  (111) 
negative

$$$$

     RDKit          2D

 17 17  0  0  0  0  0  0  0  0999 V2000
    1.3644   -2.8746    0.0000 C   0  0  0  0  0  0  0  0  0  0  0  0
    0.8953   -1.4498    0.0000 C   0  0  0  0  0  0  0  0  0  0  0  0
    1.8946   -0.3312    0.0000 N   0  0  0  0  0  0  0  0  0  0  0  0
    3.3631   -0.6374    0.0000 C   0  0  0  0  0  0  0  0  0  0  0  0
    4.3624    0.4813    0.0000 C   0  0  0  0  0  0  0  0  0  0  0  0
    3.8933    1.9060    0.0000 O   0  0  0  0  0  0  0  0  0  0  0  0
    5.8308    0.1751    0.0000 O   0  0  0  0  0  0  0  0  0  0  0  0
   -0.5731   -1.1437    0.0000 C   0  0  0  0  0  0  0  0  0  0  0  0
   -1.5725   -2.2623    0.0000 O   0  0  0  0  0  0  0  0  0  0  0  0
   -1.0422    0.2811    0.0000 N   0  0  0  0  0  0  0  0  0  0  0  0
   -0.1653    1.4980    0.0000 C   0  0  0  0  0  0  0  0  0  0  0  0
   -1.0517    2.7081    0.0000 C   0  0  0  0  0  0  0  0  0  0  0  0
   -2.4765    2.2390    0.0000 C   0  0  0  0  0  0  0  0  0  0  0  0
   -2.4706    0.7390    0.0000 C   0  0  0  0  0  0  0  0  0  0  0  0
   -3.6807   -0.1474    0.0000 C   0  0  0  0  0  0  0  0  0  0  0  0
   -3.5181   -1.6386    0.0000 O   0  0  0  0  0  0  0  0  0  0  0  0
   -5.0534    0.4574    0.0000 O   0  0  0  0  0  0  0  0  0  0  0  0
  1  2  1  0
  2  3  1  0
  3  4  1  0
  4  5  1  0
  5  6  2  0
  5  7  1  0
  2  8  1  0
  8  9  2  0
  8 10  1  0
 10 11  1  0
 11 12  1  0
 12 13  1  0
 13 14  1  0
 14 15  1  0
 15 16  2  0
 15 17  1  0
 14 10  1  0
M  CHG  3   3   1   7  -1  17  -1
M  END
>  <pIC50_class>  (112) 
negative

$$$$

     RDKit          2D

 15 15  0  0  0  0  0  0  0  0999 V2000
    3.8424   -1.8180    0.0000 O   0  0  0  0  0  0  0  0  0  0  0  0
    2.4192   -1.3442    0.0000 C   0  0  0  0  0  0  0  0  0  0  0  0
    1.2973   -2.3398    0.0000 O   0  0  0  0  0  0  0  0  0  0  0  0
    2.1179    0.1252    0.0000 C   0  0  0  0  0  0  0  0  0  0  0  0
    3.1297    1.2327    0.0000 C   0  0  0  0  0  0  0  0  0  0  0  0
    2.3890    2.5371    0.0000 C   0  0  0  0  0  0  0  0  0  0  0  0
    0.9196    2.2358    0.0000 C   0  0  0  0  0  0  0  0  0  0  0  0
    0.7521    0.7452    0.0000 N   0  0  0  0  0  0  0  0  0  0  0  0
   -0.5523    0.0046    0.0000 C   0  0  0  0  0  0  0  0  0  0  0  0
   -0.5632   -1.4954    0.0000 O   0  0  0  0  0  0  0  0  0  0  0  0
   -1.8459    0.7640    0.0000 C   0  0  0  0  0  0  0  0  0  0  0  0
   -3.1504    0.0233    0.0000 P   0  0  0  0  0  0  0  0  0  0  0  0
   -4.4548   -0.7173    0.0000 O   0  0  0  0  0  0  0  0  0  0  0  0
   -3.8910    1.3278    0.0000 O   0  0  0  0  0  0  0  0  0  0  0  0
   -2.4097   -1.2811    0.0000 O   0  0  0  0  0  0  0  0  0  0  0  0
  1  2  2  0
  2  3  1  0
  2  4  1  0
  4  5  1  0
  5  6  1  0
  6  7  1  0
  7  8  1  0
  8  9  1  0
  9 10  2  0
  9 11  1  0
 11 12  1  0
 12 13  2  0
 12 14  1  0
 12 15  1  0
  8  4  1  0
M  CHG  3   3  -1  14  -1  15  -1
M  END
>  <pIC50_class>  (113) 
negative

$$$$

     RDKit          2D

 16 16  0  0  0  0  0  0  0  0999 V2000
    4.6098   -1.4831    0.0000 O   0  0  0  0  0  0  0  0  0  0  0  0
    3.1350   -1.2096    0.0000 C   0  0  0  0  0  0  0  0  0  0  0  0
    2.1607   -2.3500    0.0000 O   0  0  0  0  0  0  0  0  0  0  0  0
    2.6345    0.2045    0.0000 C   0  0  0  0  0  0  0  0  0  0  0  0
    3.4843    1.4405    0.0000 C   0  0  0  0  0  0  0  0  0  0  0  0
    2.5713    2.6307    0.0000 C   0  0  0  0  0  0  0  0  0  0  0  0
    1.1573    2.1302    0.0000 C   0  0  0  0  0  0  0  0  0  0  0  0
    1.1963    0.6307    0.0000 N   0  0  0  0  0  0  0  0  0  0  0  0
    0.0062   -0.2823    0.0000 C   0  0  0  0  0  0  0  0  0  0  0  0
    0.2017   -1.7695    0.0000 O   0  0  0  0  0  0  0  0  0  0  0  0
   -1.3796    0.2919    0.0000 C   0  0  0  0  0  0  0  0  0  0  0  0
   -2.5697   -0.6210    0.0000 C   0  0  0  0  0  0  0  0  0  0  0  0
   -3.9555   -0.0468    0.0000 P   0  0  0  0  0  0  0  0  0  0  0  0
   -5.3412    0.5274    0.0000 O   0  0  0  0  0  0  0  0  0  0  0  0
   -4.5297   -1.4326    0.0000 O   0  0  0  0  0  0  0  0  0  0  0  0
   -3.3813    1.3389    0.0000 O   0  0  0  0  0  0  0  0  0  0  0  0
  1  2  2  0
  2  3  1  0
  2  4  1  0
  4  5  1  0
  5  6  1  0
  6  7  1  0
  7  8  1  0
  8  9  1  0
  9 10  2  0
  9 11  1  0
 11 12  1  0
 12 13  1  0
 13 14  2  0
 13 15  1  0
 13 16  1  0
  8  4  1  0
M  CHG  3   3  -1  15  -1  16  -1
M  END
>  <pIC50_class>  (114) 
negative

$$$$
